
  iter  continuity  x-velocity  y-velocity           k       omega          cl          cd     time/iter
     1  1.0000e+00  1.9821e-03  4.7017e-04  4.9903e-01  3.0116e-01  4.2612e-02  5.5509e-02  0:16:39  999
     2  1.0000e+00  9.8812e-04  2.8338e-04  3.5307e-01  2.5658e-01  1.2253e-01  6.8063e-02  0:19:58  998
     3  6.3843e-01  4.9064e-04  1.6727e-04  2.2126e-01  2.0590e-01  2.0273e-01  7.3110e-02  0:19:17  997
     4  6.1410e-01  2.6892e-04  1.0217e-04  1.3788e-01  1.5624e-01  2.6976e-01  7.5623e-02  0:18:43  996
     5  3.8833e-01  1.5213e-04  6.5849e-05  8.9766e-02  1.1563e-01  3.2057e-01  7.6612e-02  0:18:17  995
     6  2.6751e-01  9.1228e-05  4.3410e-05  6.1892e-02  8.5803e-02  3.5120e-01  7.6851e-02  0:17:55  994
     7  1.7187e-01  5.6727e-05  2.8566e-05  4.8216e-02  6.4734e-02  3.5804e-01  7.6257e-02  0:17:38  993
     8  1.2770e-01  3.6441e-05  1.9191e-05  4.1280e-02  5.0368e-02  3.5368e-01  7.5182e-02  0:17:24  992
     9  1.0050e-01  2.4224e-05  1.3194e-05  3.5591e-02  4.0480e-02  3.4869e-01  7.4042e-02  0:17:13  991
    10  8.2944e-02  1.6652e-05  9.0750e-06  3.1409e-02  3.3495e-02  3.4764e-01  7.3373e-02  0:20:21  990
    11  6.8858e-02  1.1977e-05  6.3542e-06  2.8612e-02  2.8411e-02  3.4695e-01  7.3373e-02  0:19:34  989

  iter  continuity  x-velocity  y-velocity           k       omega          cl          cd     time/iter
    12  5.7777e-02  8.8367e-06  4.6853e-06  2.6233e-02  2.4572e-02  3.3872e-01  7.3628e-02  0:22:13  988
    13  4.8853e-02  6.8424e-06  3.7441e-06  2.4134e-02  2.1586e-02  3.1890e-01  7.3719e-02  0:21:03  987
    14  4.3161e-02  5.9041e-06  3.6019e-06  2.1827e-02  1.9194e-02  2.9488e-01  7.3462e-02  0:23:24  986
    15  4.1173e-02  5.2634e-06  3.8768e-06  2.0119e-02  1.7213e-02  2.8282e-01  7.3140e-02  0:21:59  985
    16  3.7797e-02  4.9020e-06  3.4724e-06  1.9182e-02  1.5579e-02  2.9384e-01  7.2988e-02  0:20:51  984
    17  3.1504e-02  5.1097e-06  2.4490e-06  1.8233e-02  1.4223e-02  3.3122e-01  7.3870e-02  0:23:13  983
    18  3.4080e-02  5.4911e-06  3.5055e-06  1.7157e-02  1.3005e-02  3.8551e-01  7.5919e-02  0:21:50  982
    19  3.5924e-02  6.2015e-06  5.4803e-06  1.6594e-02  1.1951e-02  4.2824e-01  7.7469e-02  0:20:43  981
    20  3.0992e-02  5.9702e-06  5.7979e-06  1.6203e-02  1.1010e-02  4.4883e-01  7.8199e-02  0:23:05  980
    21  2.6963e-02  5.5460e-06  4.7817e-06  1.5815e-02  1.0163e-02  4.4697e-01  7.8197e-02  0:21:43  979
    22  2.2791e-02  5.1352e-06  3.0936e-06  1.5085e-02  9.4029e-03  4.2641e-01  7.7531e-02  0:20:37  978

  iter  continuity  x-velocity  y-velocity           k       omega          cl          cd     time/iter
    23  1.9353e-02  4.7706e-06  2.0487e-06  1.4239e-02  8.7015e-03  3.9537e-01  7.6347e-02  0:22:59  977
    24  1.8759e-02  4.6673e-06  2.9426e-06  1.2892e-02  8.0846e-03  3.6682e-01  7.4914e-02  0:21:37  976
    25  1.8466e-02  4.6725e-06  3.6121e-06  1.1982e-02  7.5360e-03  3.5844e-01  7.3969e-02  0:20:32  975
    26  1.6030e-02  4.3151e-06  2.9545e-06  1.2120e-02  7.0828e-03  3.6708e-01  7.3921e-02  0:19:39  974
    27  1.3689e-02  3.6759e-06  1.8098e-06  1.2147e-02  6.6628e-03  3.8231e-01  7.4178e-02  0:18:57  973
    28  1.4307e-02  3.0433e-06  1.6176e-06  1.1764e-02  6.2279e-03  4.0134e-01  7.4616e-02  0:18:23  972
    29  1.3040e-02  2.7350e-06  2.1020e-06  1.0879e-02  5.8224e-03  4.2145e-01  7.5135e-02  0:17:56  971
    30  1.1958e-02  2.6902e-06  2.4319e-06  9.9254e-03  5.4878e-03  4.3808e-01  7.5494e-02  0:17:34  970
    31  1.0688e-02  2.5875e-06  2.4013e-06  9.3925e-03  5.1842e-03  4.4887e-01  7.5618e-02  0:20:30  969
    32  9.3805e-03  2.3764e-06  2.0515e-06  9.0204e-03  4.8856e-03  4.5418e-01  7.5571e-02  0:19:36  968
    33  8.1144e-03  2.0720e-06  1.5529e-06  8.8676e-03  4.6008e-03  4.5518e-01  7.5403e-02  0:22:07  967

  iter  continuity  x-velocity  y-velocity           k       omega          cl          cd     time/iter
    34  6.9087e-03  1.6853e-06  1.0389e-06  8.6303e-03  4.3234e-03  4.5367e-01  7.5171e-02  0:24:07  966
    35  5.7890e-03  1.2781e-06  6.5447e-07  8.1948e-03  4.0548e-03  4.5296e-01  7.4994e-02  0:22:29  965
    36  4.8591e-03  9.4393e-07  4.6797e-07  7.8334e-03  3.8159e-03  4.5639e-01  7.5008e-02  0:24:24  964
    37  4.1540e-03  8.0546e-07  4.3897e-07  7.7038e-03  3.6172e-03  4.6421e-01  7.5213e-02  0:22:43  963
    38  4.1606e-03  9.7212e-07  6.9704e-07  7.4643e-03  3.4573e-03  4.7430e-01  7.5493e-02  0:21:21  962
    39  4.4660e-03  1.1693e-06  9.7151e-07  6.9399e-03  3.3136e-03  4.8424e-01  7.5734e-02  0:23:28  961
    40  4.5298e-03  1.2757e-06  1.1136e-06  6.5905e-03  3.1778e-03  4.9273e-01  7.5892e-02  0:21:58  960
    41  4.3885e-03  1.2895e-06  1.1168e-06  6.2934e-03  3.0433e-03  4.9957e-01  7.5975e-02  0:23:57  959
    42  4.1205e-03  1.2292e-06  1.0303e-06  5.9800e-03  2.9086e-03  5.0504e-01  7.6010e-02  0:22:20  958
    43  3.7829e-03  1.1281e-06  9.0388e-07  5.6218e-03  2.7761e-03  5.0949e-01  7.6021e-02  0:21:02  957
    44  3.4188e-03  1.0079e-06  7.7215e-07  5.2762e-03  2.6473e-03  5.1324e-01  7.6026e-02  0:23:11  956

  iter  continuity  x-velocity  y-velocity           k       omega          cl          cd     time/iter
    45  3.1859e-03  8.8787e-07  6.5613e-07  4.9473e-03  2.5238e-03  5.1648e-01  7.6033e-02  0:21:43  955
    46  3.0067e-03  7.8158e-07  5.6103e-07  4.6322e-03  2.4075e-03  5.1935e-01  7.6044e-02  0:23:43  954
    47  2.8652e-03  6.9354e-07  4.8549e-07  4.3425e-03  2.2983e-03  5.2189e-01  7.6059e-02  0:22:07  953
    48  2.7304e-03  6.2197e-07  4.2483e-07  4.0779e-03  2.1963e-03  5.2416e-01  7.6077e-02  0:20:51  952
    49  2.5692e-03  5.6165e-07  3.7485e-07  3.8366e-03  2.1013e-03  5.2619e-01  7.6095e-02  0:23:00  951
    50  2.4262e-03  5.0797e-07  3.3537e-07  3.6146e-03  2.0133e-03  5.2800e-01  7.6115e-02  0:24:43  950
    51  2.3504e-03  4.6033e-07  3.0423e-07  3.4077e-03  1.9303e-03  5.2962e-01  7.6134e-02  0:22:55  949
    52  2.3041e-03  4.2148e-07  2.7868e-07  3.2175e-03  1.8513e-03  5.3107e-01  7.6153e-02  0:21:28  948
    53  2.2582e-03  3.9076e-07  2.5676e-07  3.0393e-03  1.7760e-03  5.3236e-01  7.6172e-02  0:23:28  947
    54  2.2049e-03  3.6502e-07  2.3685e-07  2.8777e-03  1.7052e-03  5.3353e-01  7.6191e-02  0:21:55  946
    55  2.0780e-03  3.4283e-07  2.1866e-07  2.7287e-03  1.6387e-03  5.3459e-01  7.6208e-02  0:23:49  945

  iter  continuity  x-velocity  y-velocity           k       omega          cl          cd     time/iter
    56  2.0234e-03  3.2271e-07  2.0495e-07  2.5919e-03  1.5750e-03  5.3554e-01  7.6225e-02  0:22:11  944
    57  1.9991e-03  3.0388e-07  1.9459e-07  2.4651e-03  1.5134e-03  5.3641e-01  7.6242e-02  0:24:01  943
    58  2.0185e-03  2.8583e-07  1.8522e-07  2.3474e-03  1.4537e-03  5.3719e-01  7.6258e-02  0:22:20  942
    59  2.1060e-03  2.6803e-07  1.7610e-07  2.2376e-03  1.3969e-03  5.3791e-01  7.6274e-02  0:24:07  941
    60  2.1262e-03  2.5325e-07  1.6560e-07  2.1363e-03  1.3431e-03  5.3856e-01  7.6289e-02  0:22:24  940
    61  2.0186e-03  2.4178e-07  1.5412e-07  2.0432e-03  1.2919e-03  5.3916e-01  7.6303e-02  0:21:02  939
    62  1.8898e-03  2.3271e-07  1.4353e-07  1.9593e-03  1.2431e-03  5.3971e-01  7.6317e-02  0:23:04  938
    63  1.7678e-03  2.2519e-07  1.3455e-07  1.8814e-03  1.1964e-03  5.4022e-01  7.6330e-02  0:21:33  937
    64  1.7295e-03  2.1848e-07  1.2781e-07  1.8077e-03  1.1507e-03  5.4069e-01  7.6343e-02  0:20:21  936
    65  1.7390e-03  2.1225e-07  1.2188e-07  1.7391e-03  1.1068e-03  5.4112e-01  7.6356e-02  0:22:30  935
    66  1.7897e-03  2.0374e-07  1.1649e-07  1.6755e-03  1.0646e-03  5.4152e-01  7.6368e-02  0:21:05  934

  iter  continuity  x-velocity  y-velocity           k       omega          cl          cd     time/iter
    67  1.8950e-03  1.9486e-07  1.1188e-07  1.6162e-03  1.0244e-03  5.4190e-01  7.6379e-02  0:19:58  933
    68  1.9851e-03  1.8715e-07  1.0732e-07  1.5595e-03  9.8578e-04  5.4225e-01  7.6390e-02  0:19:04  932
    69  1.9419e-03  1.8124e-07  1.0209e-07  1.5077e-03  9.4896e-04  5.4258e-01  7.6401e-02  0:18:20  931
    70  1.8896e-03  1.7639e-07  9.6360e-08  1.4592e-03  9.1362e-04  5.4289e-01  7.6411e-02  0:17:45  930
    71  1.8043e-03  1.7230e-07  9.1364e-08  1.4127e-03  8.7978e-04  5.4318e-01  7.6421e-02  0:17:17  929
    72  1.6865e-03  1.6799e-07  8.7280e-08  1.3676e-03  8.4755e-04  5.4346e-01  7.6431e-02  0:16:54  928
    73  1.5961e-03  1.6317e-07  8.3688e-08  1.3255e-03  8.1700e-04  5.4373e-01  7.6440e-02  0:16:36  927
    74  1.5124e-03  1.5839e-07  8.0652e-08  1.2858e-03  7.8761e-04  5.4398e-01  7.6449e-02  0:16:21  926
    75  1.4520e-03  1.5384e-07  7.8362e-08  1.2481e-03  7.5923e-04  5.4422e-01  7.6457e-02  0:19:14  925
    76  1.4096e-03  1.4913e-07  7.6583e-08  1.2123e-03  7.3194e-04  5.4445e-01  7.6465e-02  0:18:27  924
    77  1.4153e-03  1.4418e-07  7.4303e-08  1.1780e-03  7.0552e-04  5.4467e-01  7.6473e-02  0:17:49  923

  iter  continuity  x-velocity  y-velocity           k       omega          cl          cd     time/iter
    78  1.4306e-03  1.4023e-07  7.2182e-08  1.1441e-03  6.8006e-04  5.4488e-01  7.6481e-02  0:17:19  922
    79  1.4500e-03  1.3784e-07  6.9555e-08  1.1118e-03  6.5574e-04  5.4509e-01  7.6488e-02  0:16:54  921
    80  1.4320e-03  1.3570e-07  6.7293e-08  1.0830e-03  6.3306e-04  5.4528e-01  7.6495e-02  0:19:39  920
    81  1.3747e-03  1.3205e-07  6.5140e-08  1.0556e-03  6.1108e-04  5.4546e-01  7.6501e-02  0:18:46  919
    82  1.2973e-03  1.2903e-07  6.3173e-08  1.0290e-03  5.8982e-04  5.4564e-01  7.6508e-02  0:18:03  918
    83  1.2255e-03  1.2688e-07  6.1162e-08  1.0030e-03  5.6899e-04  5.4581e-01  7.6514e-02  0:17:29  917
    84  1.1178e-03  1.2503e-07  5.8581e-08  9.7710e-04  5.4870e-04  5.4598e-01  7.6520e-02  0:20:05  916
    85  1.0847e-03  1.2448e-07  5.6000e-08  9.5155e-04  5.2879e-04  5.4614e-01  7.6526e-02  0:19:06  915
    86  1.1014e-03  1.2509e-07  5.3650e-08  9.2916e-04  5.0992e-04  5.4629e-01  7.6531e-02  0:18:18  914
    87  1.0710e-03  1.2182e-07  5.1066e-08  9.0838e-04  4.9151e-04  5.4644e-01  7.6536e-02  0:20:43  913
    88  1.0217e-03  1.1445e-07  4.9051e-08  8.8817e-04  4.7391e-04  5.4659e-01  7.6541e-02  0:19:36  912

  iter  continuity  x-velocity  y-velocity           k       omega          cl          cd     time/iter
    89  9.6301e-04  1.1056e-07  4.6968e-08  8.6860e-04  4.5660e-04  5.4673e-01  7.6546e-02  0:18:42  911
    90  9.1319e-04  1.0831e-07  4.4988e-08  8.4941e-04  4.4000e-04  5.4686e-01  7.6551e-02  0:21:00  910
    91  8.5717e-04  1.0772e-07  4.3285e-08  8.3033e-04  4.2405e-04  5.4699e-01  7.6555e-02  0:19:49  909
    92  8.0396e-04  1.0752e-07  4.2567e-08  8.1182e-04  4.0858e-04  5.4712e-01  7.6560e-02  0:21:53  908
    93  7.6285e-04  1.0410e-07  4.2142e-08  7.9364e-04  3.9349e-04  5.4724e-01  7.6564e-02  0:20:31  907
    94  7.6498e-04  1.0118e-07  4.1945e-08  7.7565e-04  3.7880e-04  5.4736e-01  7.6568e-02  0:19:25  906
    95  7.8753e-04  9.9134e-08  4.2036e-08  7.5772e-04  3.6462e-04  5.4748e-01  7.6572e-02  0:21:33  905
    96  8.0910e-04  9.5877e-08  4.2388e-08  7.4073e-04  3.5134e-04  5.4759e-01  7.6575e-02  0:20:14  904
    97  8.3074e-04  9.2981e-08  4.2808e-08  7.2520e-04  3.3881e-04  5.4770e-01  7.6579e-02  0:22:11  903
    98  8.5180e-04  9.1882e-08  4.3554e-08  7.1055e-04  3.2682e-04  5.4780e-01  7.6582e-02  0:20:44  902
    99  8.7602e-04  9.1817e-08  4.4245e-08  6.9635e-04  3.1552e-04  5.4790e-01  7.6585e-02  0:19:34  901

  iter  continuity  x-velocity  y-velocity           k       omega          cl          cd     time/iter
   100  9.0194e-04  9.2069e-08  4.4934e-08  6.8281e-04  3.0475e-04  5.4800e-01  7.6589e-02  0:18:39  900
   101  9.3147e-04  9.2355e-08  4.5399e-08  6.6989e-04  2.9465e-04  5.4810e-01  7.6592e-02  0:20:53  899
   102  9.6850e-04  9.2134e-08  4.5959e-08  6.5774e-04  2.8507e-04  5.4819e-01  7.6595e-02  0:19:41  898
   103  9.9163e-04  9.2172e-08  4.6784e-08  6.4626e-04  2.7610e-04  5.4828e-01  7.6597e-02  0:18:43  897
   104  1.0324e-03  9.2478e-08  4.7861e-08  6.3509e-04  2.6764e-04  5.4837e-01  7.6600e-02  0:17:57  896
   105  1.1162e-03  9.2098e-08  4.9317e-08  6.2343e-04  2.5937e-04  5.4845e-01  7.6603e-02  0:17:20  895
   106  1.2814e-03  9.2596e-08  5.0561e-08  6.1161e-04  2.5096e-04  5.4853e-01  7.6605e-02  0:16:49  894
   107  1.5054e-03  9.1794e-08  5.1631e-08  5.9950e-04  2.4222e-04  5.4861e-01  7.6608e-02  0:16:25  893
   108  1.7274e-03  9.1897e-08  5.1998e-08  5.8826e-04  2.3302e-04  5.4869e-01  7.6610e-02  0:16:06  892
   109  1.8828e-03  9.3269e-08  5.0923e-08  5.7738e-04  2.2420e-04  5.4876e-01  7.6612e-02  0:15:50  891
   110  1.9004e-03  9.5105e-08  4.8914e-08  5.6655e-04  2.1591e-04  5.4883e-01  7.6614e-02  0:12:39  890

  iter  continuity  x-velocity  y-velocity           k       omega          cl          cd     time/iter
   111  1.7661e-03  9.7057e-08  4.5918e-08  5.5594e-04  2.0848e-04  5.4890e-01  7.6616e-02  0:13:04  889
   112  1.5856e-03  9.7075e-08  4.3496e-08  5.4511e-04  2.0131e-04  5.4897e-01  7.6618e-02  0:13:24  888
   113  1.4330e-03  9.5425e-08  4.1677e-08  5.3493e-04  1.9447e-04  5.4904e-01  7.6620e-02  0:13:40  887
   114  1.3416e-03  8.9438e-08  4.1016e-08  5.2494e-04  1.8798e-04  5.4910e-01  7.6622e-02  0:13:53  886
   115  1.2447e-03  8.4410e-08  4.0744e-08  5.1512e-04  1.8185e-04  5.4917e-01  7.6624e-02  0:14:02  885
   116  1.1615e-03  8.4468e-08  4.0393e-08  5.0622e-04  1.7612e-04  5.4923e-01  7.6625e-02  0:14:10  884
   117  1.0791e-03  8.5381e-08  3.9312e-08  4.9753e-04  1.7055e-04  5.4929e-01  7.6627e-02  0:14:16  883
   118  9.9880e-04  8.5363e-08  3.7583e-08  4.8938e-04  1.6510e-04  5.4935e-01  7.6628e-02  0:14:20  882
   119  9.2973e-04  8.2932e-08  3.5282e-08  4.8137e-04  1.5985e-04  5.4940e-01  7.6630e-02  0:14:24  881
   120  8.6948e-04  8.1550e-08  3.2403e-08  4.7328e-04  1.5470e-04  5.4946e-01  7.6631e-02  0:14:26  880
   121  7.9295e-04  7.9139e-08  2.9989e-08  4.6556e-04  1.4962e-04  5.4951e-01  7.6633e-02  0:14:28  879

  iter  continuity  x-velocity  y-velocity           k       omega          cl          cd     time/iter
   122  7.1380e-04  7.5018e-08  2.8786e-08  4.5816e-04  1.4461e-04  5.4957e-01  7.6634e-02  0:14:29  878
   123  6.5086e-04  6.9342e-08  2.7825e-08  4.5093e-04  1.3959e-04  5.4962e-01  7.6635e-02  0:17:25  877
   124  6.2470e-04  6.7657e-08  2.8087e-08  4.4403e-04  1.3460e-04  5.4966e-01  7.6637e-02  0:19:46  876
   125  6.2249e-04  6.8437e-08  2.9959e-08  4.3769e-04  1.3009e-04  5.4971e-01  7.6638e-02  0:18:42  875
   126  6.5396e-04  6.8650e-08  3.2193e-08  4.3198e-04  1.2607e-04  5.4976e-01  7.6639e-02  0:20:47  874
   127  7.0354e-04  6.8116e-08  3.4528e-08  4.2659e-04  1.2233e-04  5.4980e-01  7.6640e-02  0:19:31  873
   128  7.5483e-04  6.9423e-08  3.6684e-08  4.2152e-04  1.1882e-04  5.4985e-01  7.6641e-02  0:18:30  872
   129  8.1408e-04  6.9476e-08  3.8200e-08  4.1624e-04  1.1542e-04  5.4989e-01  7.6642e-02  0:17:41  871
   130  8.6918e-04  6.9000e-08  3.9442e-08  4.1119e-04  1.1214e-04  5.4993e-01  7.6643e-02  0:17:02  870
   131  9.1893e-04  6.7425e-08  4.0520e-08  4.0665e-04  1.0912e-04  5.4997e-01  7.6644e-02  0:16:30  869
   132  9.6969e-04  6.5439e-08  4.1646e-08  4.0229e-04  1.0627e-04  5.5001e-01  7.6645e-02  0:16:05  868

  iter  continuity  x-velocity  y-velocity           k       omega          cl          cd     time/iter
   133  1.0276e-03  6.4109e-08  4.2431e-08  3.9767e-04  1.0346e-04  5.5005e-01  7.6646e-02  0:15:45  867
   134  1.1120e-03  6.3265e-08  4.3255e-08  3.9296e-04  1.0091e-04  5.5008e-01  7.6647e-02  0:15:28  866
   135  1.2446e-03  6.3142e-08  4.4401e-08  3.8798e-04  9.7998e-05  5.5012e-01  7.6648e-02  0:15:14  865
   136  1.4868e-03  6.2786e-08  4.6261e-08  3.8253e-04  9.4390e-05  5.5015e-01  7.6649e-02  0:12:11  864
   137  1.7753e-03  6.2037e-08  4.8215e-08  3.7668e-04  9.0254e-05  5.5018e-01  7.6649e-02  0:12:37  863
   138  2.0225e-03  6.1343e-08  4.9243e-08  3.7109e-04  8.6386e-05  5.5021e-01  7.6650e-02  0:12:57  862
   139  2.1352e-03  5.9916e-08  4.9638e-08  3.6556e-04  8.2810e-05  5.5024e-01  7.6651e-02  0:13:13  861
   140  2.0617e-03  5.9430e-08  4.7778e-08  3.5981e-04  7.9708e-05  5.5027e-01  7.6651e-02  0:10:34  860
   141  1.8925e-03  5.9592e-08  4.2660e-08  3.5354e-04  7.6821e-05  5.5030e-01  7.6652e-02  0:11:18  859
   142  1.6716e-03  5.9969e-08  3.9967e-08  3.4790e-04  7.4102e-05  5.5033e-01  7.6653e-02  0:11:53  858
   143  1.5096e-03  5.7853e-08  3.9405e-08  3.4273e-04  7.1602e-05  5.5036e-01  7.6653e-02  0:12:22  857

  iter  continuity  x-velocity  y-velocity           k       omega          cl          cd     time/iter
   144  1.4054e-03  5.5505e-08  3.9339e-08  3.3814e-04  6.9284e-05  5.5039e-01  7.6654e-02  0:12:44  856
   145  1.3150e-03  5.4026e-08  3.8894e-08  3.3333e-04  6.7069e-05  5.5041e-01  7.6654e-02  0:13:01  855
   146  1.2041e-03  5.3577e-08  3.7456e-08  3.2885e-04  6.4819e-05  5.5044e-01  7.6655e-02  0:13:15  854
   147  1.0846e-03  5.3782e-08  3.4306e-08  3.2462e-04  6.2615e-05  5.5046e-01  7.6655e-02  0:13:26  853
   148  9.6533e-04  5.4681e-08  3.1029e-08  3.2072e-04  6.0268e-05  5.5049e-01  7.6656e-02  0:13:34  852
   149  8.3966e-04  5.5735e-08  2.9355e-08  3.1686e-04  5.7963e-05  5.5051e-01  7.6656e-02  0:13:41  851
   150  7.4697e-04  5.2156e-08  2.8281e-08  3.1285e-04  5.5581e-05  5.5053e-01  7.6657e-02  0:13:46  850
   151  7.0513e-04  4.2797e-08  2.7537e-08  3.0875e-04  5.3181e-05  5.5055e-01  7.6657e-02  0:13:50  849
   152  7.0173e-04  3.9397e-08  2.7765e-08  3.0446e-04  5.0824e-05  5.5058e-01  7.6658e-02  0:13:53  848
   153  7.1744e-04  3.9339e-08  3.0399e-08  3.0010e-04  4.8747e-05  5.5060e-01  7.6658e-02  0:13:55  847
   154  7.5890e-04  4.0669e-08  3.3076e-08  2.9564e-04  4.6894e-05  5.5062e-01  7.6659e-02  0:13:56  846

  iter  continuity  x-velocity  y-velocity           k       omega          cl          cd     time/iter
   155  7.8275e-04  4.3026e-08  3.4627e-08  2.9131e-04  4.5169e-05  5.5064e-01  7.6659e-02  0:13:57  845
   156  8.0333e-04  4.5873e-08  3.4718e-08  2.8778e-04  4.3614e-05  5.5066e-01  7.6659e-02  0:13:58  844
   157  8.0158e-04  4.9183e-08  3.3731e-08  2.8425e-04  4.1924e-05  5.5067e-01  7.6660e-02  0:13:58  843
   158  8.0004e-04  4.9390e-08  3.1497e-08  2.8065e-04  4.0314e-05  5.5069e-01  7.6660e-02  0:13:58  842
   159  7.7122e-04  4.9605e-08  2.8143e-08  2.7723e-04  3.8575e-05  5.5071e-01  7.6660e-02  0:13:58  841
   160  7.1283e-04  4.8471e-08  2.4870e-08  2.7340e-04  3.6817e-05  5.5073e-01  7.6661e-02  0:13:57  840
   161  6.5009e-04  4.5529e-08  2.1941e-08  2.6936e-04  3.5139e-05  5.5074e-01  7.6661e-02  0:16:45  839
   162  5.7629e-04  4.1031e-08  1.9681e-08  2.6543e-04  3.3429e-05  5.5076e-01  7.6661e-02  0:16:10  838
   163  5.3328e-04  3.9262e-08  1.8244e-08  2.6184e-04  3.1869e-05  5.5077e-01  7.6662e-02  0:15:43  837
   164  5.0164e-04  3.9865e-08  1.7955e-08  2.5854e-04  3.0589e-05  5.5079e-01  7.6662e-02  0:18:08  836
   165  4.9005e-04  4.0645e-08  1.8335e-08  2.5546e-04  2.9331e-05  5.5080e-01  7.6662e-02  0:17:16  835

  iter  continuity  x-velocity  y-velocity           k       omega          cl          cd     time/iter
   166  4.9752e-04  4.1500e-08  1.8622e-08  2.5244e-04  2.8050e-05  5.5081e-01  7.6662e-02  0:19:22  834
   167  5.0333e-04  4.2739e-08  1.8799e-08  2.4931e-04  2.6775e-05  5.5083e-01  7.6663e-02  0:21:01  833
   168  5.1785e-04  4.4180e-08  1.8745e-08  2.4615e-04  2.5532e-05  5.5084e-01  7.6663e-02  0:19:34  832
   169  5.2707e-04  4.3723e-08  1.8648e-08  2.4301e-04  2.4377e-05  5.5085e-01  7.6663e-02  0:18:24  831
   170  5.2780e-04  4.3543e-08  1.8379e-08  2.4012e-04  2.3306e-05  5.5086e-01  7.6663e-02  0:20:15  830
   171  5.3157e-04  4.2578e-08  1.8214e-08  2.3748e-04  2.2393e-05  5.5087e-01  7.6663e-02  0:18:56  829
   172  5.3521e-04  4.1414e-08  1.8053e-08  2.3478e-04  2.1490e-05  5.5089e-01  7.6664e-02  0:20:39  828
   173  5.4080e-04  3.9589e-08  1.8364e-08  2.3256e-04  2.0465e-05  5.5090e-01  7.6664e-02  0:19:15  827
   174  5.4463e-04  3.7483e-08  1.8799e-08  2.3020e-04  1.9477e-05  5.5091e-01  7.6664e-02  0:18:08  826
   175  5.5174e-04  3.7639e-08  1.9091e-08  2.2777e-04  1.8560e-05  5.5092e-01  7.6664e-02  0:20:00  825
   176  5.6023e-04  3.5942e-08  1.9413e-08  2.2539e-04  1.7751e-05  5.5092e-01  7.6664e-02  0:18:43  824

  iter  continuity  x-velocity  y-velocity           k       omega          cl          cd     time/iter
   177  5.7359e-04  3.4224e-08  1.9857e-08  2.2307e-04  1.7066e-05  5.5093e-01  7.6664e-02  0:20:27  823
   178  5.8522e-04  3.3196e-08  2.0262e-08  2.2083e-04  1.6458e-05  5.5094e-01  7.6664e-02  0:19:05  822
   179  5.9485e-04  3.2412e-08  2.0559e-08  2.1862e-04  1.5870e-05  5.5095e-01  7.6664e-02  0:20:43  821
   180  6.0236e-04  3.1764e-08  2.0634e-08  2.1638e-04  1.5305e-05  5.5096e-01  7.6665e-02  0:19:17  820
   181  6.0827e-04  3.1000e-08  2.0550e-08  2.1417e-04  1.4750e-05  5.5097e-01  7.6665e-02  0:18:08  819
   182  6.1281e-04  3.0935e-08  2.0358e-08  2.1193e-04  1.4219e-05  5.5098e-01  7.6665e-02  0:19:57  818
   183  6.1774e-04  3.1270e-08  2.0171e-08  2.0970e-04  1.3709e-05  5.5098e-01  7.6665e-02  0:18:40  817
   184  6.2046e-04  3.1854e-08  2.0058e-08  2.0756e-04  1.3227e-05  5.5099e-01  7.6665e-02  0:20:21  816
   185  6.1997e-04  3.2270e-08  1.9967e-08  2.0546e-04  1.2771e-05  5.5100e-01  7.6665e-02  0:18:59  815
   186  6.1584e-04  3.2714e-08  1.9931e-08  2.0348e-04  1.2351e-05  5.5100e-01  7.6665e-02  0:17:53  814
   187  6.0949e-04  3.3672e-08  1.9845e-08  2.0163e-04  1.1969e-05  5.5101e-01  7.6665e-02  0:19:42  813

  iter  continuity  x-velocity  y-velocity           k       omega          cl          cd     time/iter
   188  6.0258e-04  3.5507e-08  1.9782e-08  1.9978e-04  1.1622e-05  5.5102e-01  7.6665e-02  0:18:27  812
   189  6.0307e-04  3.8054e-08  1.9895e-08  1.9787e-04  1.1294e-05  5.5102e-01  7.6665e-02  0:20:09  811
   190  6.0546e-04  4.1357e-08  1.9962e-08  1.9592e-04  1.0979e-05  5.5103e-01  7.6665e-02  0:21:30  810
   191  6.0773e-04  4.4572e-08  1.9887e-08  1.9412e-04  1.0703e-05  5.5103e-01  7.6665e-02  0:19:52  809
   192  6.0828e-04  4.4958e-08  1.9578e-08  1.9229e-04  1.0442e-05  5.5104e-01  7.6665e-02  0:18:34  808
   193  5.9745e-04  4.2418e-08  1.8988e-08  1.9065e-04  1.0227e-05  5.5104e-01  7.6666e-02  0:20:13  807
   194  5.8327e-04  4.1226e-08  1.8294e-08  1.8915e-04  1.0043e-05  5.5105e-01  7.6666e-02  0:18:51  806
   195  5.7089e-04  4.1920e-08  1.7612e-08  1.8751e-04  9.8623e-06  5.5105e-01  7.6666e-02  0:20:25  805
   196  5.5628e-04  4.2274e-08  1.6952e-08  1.8571e-04  9.6692e-06  5.5106e-01  7.6666e-02  0:19:00  804
   197  5.4103e-04  4.3653e-08  1.6270e-08  1.8371e-04  9.4613e-06  5.5106e-01  7.6666e-02  0:20:32  803
   198  5.2257e-04  4.3689e-08  1.5627e-08  1.8170e-04  9.2824e-06  5.5106e-01  7.6666e-02  0:19:05  802

  iter  continuity  x-velocity  y-velocity           k       omega          cl          cd     time/iter
   199  5.0028e-04  4.3013e-08  1.5071e-08  1.7959e-04  9.1388e-06  5.5107e-01  7.6666e-02  0:20:35  801
   200  4.7758e-04  4.3587e-08  1.4687e-08  1.7755e-04  9.0523e-06  5.5107e-01  7.6666e-02  0:19:07  800
   201  4.5563e-04  4.3599e-08  1.4541e-08  1.7582e-04  9.0206e-06  5.5108e-01  7.6666e-02  0:20:36  799
   202  4.3908e-04  4.3743e-08  1.4422e-08  1.7426e-04  9.0497e-06  5.5108e-01  7.6666e-02  0:19:07  798
   203  4.3502e-04  4.3618e-08  1.4615e-08  1.7288e-04  9.1423e-06  5.5108e-01  7.6666e-02  0:20:35  797
   204  4.4901e-04  4.4258e-08  1.5139e-08  1.7166e-04  9.3341e-06  5.5109e-01  7.6666e-02  0:19:06  796
   205  4.8508e-04  4.6096e-08  1.6020e-08  1.7060e-04  9.6294e-06  5.5109e-01  7.6666e-02  0:17:55  795
   206  5.3340e-04  4.8852e-08  1.7440e-08  1.6983e-04  9.9907e-06  5.5109e-01  7.6666e-02  0:19:36  794
   207  5.9470e-04  5.0610e-08  1.9135e-08  1.6949e-04  1.0539e-05  5.5109e-01  7.6666e-02  0:18:19  793
   208  6.5939e-04  4.9726e-08  2.1042e-08  1.6902e-04  1.1203e-05  5.5110e-01  7.6666e-02  0:14:38  792
   209  7.2504e-04  4.9339e-08  2.2590e-08  1.6858e-04  1.2064e-05  5.5110e-01  7.6666e-02  0:14:19  791

  iter  continuity  x-velocity  y-velocity           k       omega          cl          cd     time/iter
   210  8.0262e-04  5.1410e-08  2.3992e-08  1.6856e-04  1.2941e-05  5.5110e-01  7.6666e-02  0:16:43  790
   211  9.1963e-04  4.8996e-08  2.5744e-08  1.6810e-04  1.3686e-05  5.5110e-01  7.6666e-02  0:15:59  789
   212  1.1121e-03  4.7424e-08  2.9183e-08  1.6708e-04  1.3906e-05  5.5111e-01  7.6666e-02  0:12:46  788
   213  1.3733e-03  4.7753e-08  3.4766e-08  1.6607e-04  1.3576e-05  5.5111e-01  7.6667e-02  0:12:50  787
   214  1.6441e-03  5.0629e-08  3.9934e-08  1.6513e-04  1.2761e-05  5.5111e-01  7.6667e-02  0:12:52  786
   215  1.8407e-03  5.3731e-08  4.4247e-08  1.6374e-04  1.2600e-05  5.5111e-01  7.6667e-02  0:12:54  785
   216  1.8794e-03  5.5982e-08  4.5833e-08  1.6280e-04  1.2635e-05  5.5111e-01  7.6667e-02  0:12:55  784
   217  1.8954e-03  5.6854e-08  4.3397e-08  1.6128e-04  1.2478e-05  5.5112e-01  7.6667e-02  0:10:19  783
   218  1.8099e-03  5.5579e-08  3.7157e-08  1.5928e-04  1.2347e-05  5.5112e-01  7.6667e-02  0:10:51  782
   219  1.6443e-03  5.1506e-08  3.1945e-08  1.5681e-04  1.2212e-05  5.5112e-01  7.6667e-02  0:11:16  781
   220  1.4421e-03  4.7087e-08  2.7984e-08  1.5451e-04  1.2119e-05  5.5112e-01  7.6667e-02  0:11:37  780

  iter  continuity  x-velocity  y-velocity           k       omega          cl          cd     time/iter
   221  1.2707e-03  4.2004e-08  2.4603e-08  1.5261e-04  1.1826e-05  5.5112e-01  7.6667e-02  0:09:16  779
   222  1.0804e-03  3.8689e-08  2.3140e-08  1.5069e-04  1.1377e-05  5.5112e-01  7.6667e-02  0:10:00  778
   223  8.8806e-04  3.6203e-08  2.2293e-08  1.4820e-04  1.1142e-05  5.5112e-01  7.6667e-02  0:10:35  777
   224  7.6122e-04  3.4606e-08  2.2180e-08  1.4626e-04  1.1073e-05  5.5113e-01  7.6667e-02  0:11:03  776
   225  7.1792e-04  3.3748e-08  2.2397e-08  1.4466e-04  1.1156e-05  5.5113e-01  7.6667e-02  0:11:24  775
   226  7.0460e-04  3.2825e-08  2.3167e-08  1.4369e-04  1.1561e-05  5.5113e-01  7.6667e-02  0:11:42  774
   227  7.2551e-04  3.4313e-08  2.6249e-08  1.4371e-04  1.2319e-05  5.5113e-01  7.6667e-02  0:11:55  773
   228  8.2581e-04  3.6479e-08  3.1309e-08  1.4391e-04  1.2921e-05  5.5113e-01  7.6667e-02  0:12:06  772
   229  1.0181e-03  3.7401e-08  3.7815e-08  1.4349e-04  1.3160e-05  5.5113e-01  7.6667e-02  0:12:14  771
   230  1.3086e-03  3.9071e-08  4.5265e-08  1.4239e-04  1.3018e-05  5.5113e-01  7.6667e-02  0:12:20  770
   231  1.6847e-03  4.1448e-08  5.1829e-08  1.4107e-04  1.2438e-05  5.5113e-01  7.6667e-02  0:12:25  769

  iter  continuity  x-velocity  y-velocity           k       omega          cl          cd     time/iter
   232  2.0597e-03  4.4324e-08  5.6996e-08  1.3882e-04  1.2123e-05  5.5113e-01  7.6667e-02  0:12:29  768
   233  2.2981e-03  4.8503e-08  6.0122e-08  1.3818e-04  1.2150e-05  5.5114e-01  7.6668e-02  0:12:32  767
   234  2.3642e-03  5.3062e-08  6.0253e-08  1.3744e-04  1.2053e-05  5.5114e-01  7.6668e-02  0:12:34  766
   235  2.2918e-03  5.6371e-08  5.5981e-08  1.3632e-04  1.1934e-05  5.5114e-01  7.6668e-02  0:10:02  765
   236  2.1713e-03  5.6775e-08  4.7904e-08  1.3488e-04  1.1853e-05  5.5114e-01  7.6668e-02  0:10:34  764
   237  1.9513e-03  5.0788e-08  4.1254e-08  1.3387e-04  1.1840e-05  5.5114e-01  7.6668e-02  0:10:59  763
   238  1.7256e-03  4.6885e-08  3.5764e-08  1.3261e-04  1.1661e-05  5.5114e-01  7.6668e-02  0:08:47  762
   239  1.4805e-03  4.5257e-08  3.2912e-08  1.3092e-04  1.1154e-05  5.5114e-01  7.6668e-02  0:09:33  761
   240  1.2837e-03  4.5341e-08  3.1718e-08  1.2895e-04  1.0796e-05  5.5114e-01  7.6668e-02  0:10:10  760
   241  1.1265e-03  4.6216e-08  3.1347e-08  1.2753e-04  1.0609e-05  5.5114e-01  7.6668e-02  0:10:39  759
   242  1.0457e-03  4.4604e-08  3.1147e-08  1.2595e-04  1.0561e-05  5.5114e-01  7.6668e-02  0:08:31  758

  iter  continuity  x-velocity  y-velocity           k       omega          cl          cd     time/iter
   243  1.0190e-03  4.7652e-08  3.1821e-08  1.2461e-04  1.0714e-05  5.5114e-01  7.6668e-02  0:09:19  757
   244  1.0172e-03  5.0107e-08  3.3814e-08  1.2369e-04  1.0983e-05  5.5114e-01  7.6668e-02  0:09:58  756
   245  1.0322e-03  4.7802e-08  3.7336e-08  1.2313e-04  1.1372e-05  5.5114e-01  7.6668e-02  0:10:29  755
   246  1.1448e-03  4.5798e-08  4.1497e-08  1.2277e-04  1.1709e-05  5.5114e-01  7.6668e-02  0:10:53  754
   247  1.3568e-03  4.7723e-08  4.5843e-08  1.2235e-04  1.1763e-05  5.5114e-01  7.6668e-02  0:11:12  753
   248  1.6754e-03  5.3022e-08  5.1134e-08  1.2134e-04  1.1578e-05  5.5114e-01  7.6668e-02  0:11:28  752
   249  2.0473e-03  6.1658e-08  5.7732e-08  1.2010e-04  1.1502e-05  5.5114e-01  7.6668e-02  0:11:40  751
   250  2.3844e-03  6.3442e-08  6.3023e-08  1.1941e-04  1.1865e-05  5.5114e-01  7.6668e-02  0:09:19  750
   251  2.5296e-03  5.8834e-08  6.5874e-08  1.1935e-04  1.2492e-05  5.5114e-01  7.6668e-02  0:09:56  749
   252  2.4488e-03  5.9296e-08  6.4322e-08  1.1922e-04  1.3075e-05  5.5115e-01  7.6668e-02  0:12:56  748
   253  2.3667e-03  6.2304e-08  5.7816e-08  1.1921e-04  1.3708e-05  5.5115e-01  7.6668e-02  0:10:20  747

  iter  continuity  x-velocity  y-velocity           k       omega          cl          cd     time/iter
   254  2.1959e-03  6.0374e-08  5.1906e-08  1.1913e-04  1.4074e-05  5.5115e-01  7.6668e-02  0:10:44  746
   255  2.0027e-03  5.8090e-08  4.6137e-08  1.1820e-04  1.4112e-05  5.5115e-01  7.6668e-02  0:11:04  745
   256  1.7492e-03  5.9599e-08  4.3657e-08  1.1736e-04  1.4199e-05  5.5115e-01  7.6668e-02  0:11:19  744
   257  1.5603e-03  6.3894e-08  4.2181e-08  1.1655e-04  1.4510e-05  5.5115e-01  7.6668e-02  0:09:03  743
   258  1.4102e-03  6.1773e-08  4.2050e-08  1.1597e-04  1.4969e-05  5.5115e-01  7.6668e-02  0:09:42  742
   259  1.4089e-03  5.2360e-08  4.3999e-08  1.1513e-04  1.5274e-05  5.5115e-01  7.6668e-02  0:10:13  741
   260  1.4979e-03  5.2560e-08  4.8032e-08  1.1332e-04  1.5267e-05  5.5115e-01  7.6668e-02  0:10:38  740
   261  1.7127e-03  5.2314e-08  5.8029e-08  1.1194e-04  1.5437e-05  5.5115e-01  7.6668e-02  0:08:30  739
   262  2.0535e-03  5.0590e-08  7.1332e-08  1.1077e-04  1.5634e-05  5.5115e-01  7.6668e-02  0:09:15  738
   263  2.5078e-03  5.5849e-08  8.5057e-08  1.1138e-04  1.5879e-05  5.5115e-01  7.6668e-02  0:09:51  737
   264  2.9152e-03  6.4530e-08  1.0066e-07  1.1260e-04  1.5888e-05  5.5115e-01  7.6669e-02  0:10:19  736

  iter  continuity  x-velocity  y-velocity           k       omega          cl          cd     time/iter
   265  3.1746e-03  7.1334e-08  1.0981e-07  1.1214e-04  1.5827e-05  5.5115e-01  7.6669e-02  0:10:42  735
   266  3.1162e-03  7.6838e-08  1.0741e-07  1.1262e-04  1.6239e-05  5.5115e-01  7.6669e-02  0:10:59  734
   267  2.9553e-03  7.8674e-08  9.4574e-08  1.1377e-04  1.6902e-05  5.5115e-01  7.6669e-02  0:08:47  733
   268  2.8227e-03  7.7470e-08  8.3374e-08  1.1440e-04  1.7370e-05  5.5115e-01  7.6669e-02  0:09:27  732
   269  2.6665e-03  7.4529e-08  7.9260e-08  1.1352e-04  1.7917e-05  5.5115e-01  7.6669e-02  0:09:59  731
   270  2.5201e-03  7.2213e-08  7.8908e-08  1.1354e-04  1.8478e-05  5.5115e-01  7.6669e-02  0:07:59  730
   271  2.5593e-03  7.7737e-08  8.4023e-08  1.1308e-04  1.8876e-05  5.5115e-01  7.6669e-02  0:08:48  729
   272  2.7436e-03  8.6482e-08  9.4812e-08  1.1403e-04  1.9149e-05  5.5115e-01  7.6669e-02  0:09:28  728
   273  3.0144e-03  8.5493e-08  1.1298e-07  1.1517e-04  1.8890e-05  5.5115e-01  7.6669e-02  0:09:59  727
   274  3.1489e-03  8.1361e-08  1.3177e-07  1.1574e-04  1.8853e-05  5.5115e-01  7.6669e-02  0:10:24  726
   275  3.1984e-03  8.4035e-08  1.3861e-07  1.1603e-04  1.9034e-05  5.5115e-01  7.6669e-02  0:10:43  725

  iter  continuity  x-velocity  y-velocity           k       omega          cl          cd     time/iter
   276  3.1042e-03  8.6709e-08  1.2646e-07  1.1693e-04  1.9616e-05  5.5115e-01  7.6669e-02  0:10:59  724
   277  3.0900e-03  8.9718e-08  1.1706e-07  1.1735e-04  2.0087e-05  5.5115e-01  7.6669e-02  0:08:46  723
   278  3.1067e-03  9.1618e-08  1.1126e-07  1.1637e-04  2.0334e-05  5.5115e-01  7.6669e-02  0:09:25  722
   279  3.2823e-03  8.5009e-08  1.1027e-07  1.1587e-04  2.0442e-05  5.5115e-01  7.6669e-02  0:09:55  721
   280  3.5162e-03  8.5416e-08  1.1552e-07  1.1553e-04  2.0326e-05  5.5115e-01  7.6669e-02  0:10:20  720
   281  3.8184e-03  9.5640e-08  1.3368e-07  1.1633e-04  2.0337e-05  5.5115e-01  7.6669e-02  0:10:39  719
   282  4.1399e-03  1.0224e-07  1.5851e-07  1.1768e-04  2.0697e-05  5.5115e-01  7.6670e-02  0:08:30  718
   283  4.1607e-03  1.0416e-07  1.6513e-07  1.1944e-04  2.1260e-05  5.5115e-01  7.6670e-02  0:09:11  717
   284  3.8905e-03  1.0254e-07  1.4903e-07  1.1985e-04  2.1617e-05  5.5115e-01  7.6670e-02  0:09:43  716
   285  3.5494e-03  9.9450e-08  1.3497e-07  1.1897e-04  2.1691e-05  5.5115e-01  7.6670e-02  0:10:09  715
   286  3.6456e-03  8.6910e-08  1.2769e-07  1.1792e-04  2.1617e-05  5.5115e-01  7.6670e-02  0:10:29  714

  iter  continuity  x-velocity  y-velocity           k       omega          cl          cd     time/iter
   287  3.9624e-03  8.4790e-08  1.2747e-07  1.1774e-04  2.1556e-05  5.5115e-01  7.6670e-02  0:08:23  713
   288  4.3571e-03  8.6368e-08  1.3757e-07  1.1837e-04  2.1655e-05  5.5115e-01  7.6670e-02  0:09:04  712
   289  4.7400e-03  1.0025e-07  1.6236e-07  1.2093e-04  2.2005e-05  5.5115e-01  7.6670e-02  0:09:37  711
   290  4.9155e-03  1.1407e-07  1.9372e-07  1.2266e-04  2.2294e-05  5.5115e-01  7.6670e-02  0:10:03  710
   291  4.6525e-03  1.2480e-07  1.8394e-07  1.2304e-04  2.2425e-05  5.5115e-01  7.6670e-02  0:10:23  709
   292  4.2763e-03  1.2217e-07  1.6272e-07  1.2166e-04  2.2324e-05  5.5115e-01  7.6670e-02  0:08:18  708
   293  3.9805e-03  1.0484e-07  1.4863e-07  1.2013e-04  2.2111e-05  5.5115e-01  7.6670e-02  0:11:21  707
   294  4.4149e-03  9.4654e-08  1.4844e-07  1.2079e-04  2.2114e-05  5.5115e-01  7.6670e-02  0:11:25  706
   295  4.9285e-03  9.6490e-08  1.5592e-07  1.2228e-04  2.2194e-05  5.5115e-01  7.6670e-02  0:09:07  705
   296  5.3399e-03  1.1161e-07  1.7622e-07  1.2390e-04  2.2293e-05  5.5115e-01  7.6671e-02  0:09:38  704
   297  5.5269e-03  1.2522e-07  2.0873e-07  1.2476e-04  2.2347e-05  5.5115e-01  7.6671e-02  0:10:02  703

  iter  continuity  x-velocity  y-velocity           k       omega          cl          cd     time/iter
   298  5.2137e-03  1.3424e-07  2.1572e-07  1.2457e-04  2.2317e-05  5.5115e-01  7.6671e-02  0:10:22  702
   299  4.8039e-03  1.3850e-07  1.9234e-07  1.2332e-04  2.2198e-05  5.5115e-01  7.6671e-02  0:10:37  701
   300  4.3286e-03  1.3086e-07  1.7886e-07  1.2134e-04  2.1977e-05  5.5115e-01  7.6671e-02  0:08:29  700
   301  4.4084e-03  1.0873e-07  1.6883e-07  1.1984e-04  2.1748e-05  5.5115e-01  7.6671e-02  0:09:06  699
   302  4.8380e-03  1.1106e-07  1.7193e-07  1.1972e-04  2.1601e-05  5.5115e-01  7.6671e-02  0:09:36  698
   303  5.4865e-03  1.3717e-07  1.8612e-07  1.2037e-04  2.1503e-05  5.5115e-01  7.6671e-02  0:09:59  697
   304  5.8190e-03  1.3958e-07  1.9914e-07  1.2147e-04  2.1481e-05  5.5115e-01  7.6671e-02  0:10:18  696
   305  5.8973e-03  1.4693e-07  2.3087e-07  1.2191e-04  2.1419e-05  5.5115e-01  7.6671e-02  0:10:33  695
   306  5.4874e-03  1.4865e-07  2.3071e-07  1.2138e-04  2.1306e-05  5.5115e-01  7.6671e-02  0:08:25  694
   307  5.0683e-03  1.4983e-07  2.0560e-07  1.1983e-04  2.1135e-05  5.5115e-01  7.6671e-02  0:09:02  693
   308  4.7204e-03  1.5117e-07  1.9189e-07  1.1900e-04  2.0994e-05  5.5115e-01  7.6672e-02  0:09:32  692

  iter  continuity  x-velocity  y-velocity           k       omega          cl          cd     time/iter
   309  4.9078e-03  1.2867e-07  1.8402e-07  1.1906e-04  2.0919e-05  5.5115e-01  7.6672e-02  0:09:55  691
   310  5.4123e-03  1.1199e-07  1.8303e-07  1.1887e-04  2.0840e-05  5.5115e-01  7.6672e-02  0:07:55  690
   311  5.7549e-03  1.1940e-07  1.8624e-07  1.1914e-04  2.0784e-05  5.5115e-01  7.6672e-02  0:08:37  689
   312  5.8358e-03  1.2030e-07  1.8591e-07  1.1916e-04  2.0703e-05  5.5115e-01  7.6672e-02  0:09:11  688
   313  5.7042e-03  1.2544e-07  1.9963e-07  1.1873e-04  2.0565e-05  5.5115e-01  7.6672e-02  0:09:38  687
   314  5.1307e-03  1.3037e-07  2.0271e-07  1.1777e-04  2.0403e-05  5.5115e-01  7.6672e-02  0:09:59  686
   315  4.5493e-03  1.3271e-07  1.8956e-07  1.1618e-04  2.0207e-05  5.5115e-01  7.6672e-02  0:10:15  685
   316  4.2615e-03  1.2951e-07  1.8565e-07  1.1488e-04  2.0026e-05  5.5116e-01  7.6672e-02  0:10:28  684
   317  4.8498e-03  1.2019e-07  1.8418e-07  1.1418e-04  1.9823e-05  5.5116e-01  7.6672e-02  0:10:38  683
   318  5.2354e-03  1.1430e-07  1.8186e-07  1.1321e-04  1.9591e-05  5.5116e-01  7.6672e-02  0:10:46  682
   319  5.7383e-03  1.3338e-07  1.8825e-07  1.1280e-04  1.9403e-05  5.5116e-01  7.6672e-02  0:08:36  681

  iter  continuity  x-velocity  y-velocity           k       omega          cl          cd     time/iter
   320  6.0516e-03  1.4429e-07  1.8577e-07  1.1281e-04  1.9264e-05  5.5116e-01  7.6672e-02  0:09:08  680
   321  6.1948e-03  1.3760e-07  1.8496e-07  1.1253e-04  1.9116e-05  5.5116e-01  7.6672e-02  0:09:34  679
   322  5.8084e-03  1.2544e-07  1.8047e-07  1.1187e-04  1.8965e-05  5.5116e-01  7.6672e-02  0:09:54  678
   323  5.1552e-03  1.2265e-07  1.9136e-07  1.1096e-04  1.8779e-05  5.5116e-01  7.6672e-02  0:10:10  677
   324  4.4033e-03  1.2298e-07  1.9707e-07  1.0971e-04  1.8542e-05  5.5116e-01  7.6672e-02  0:10:22  676
   325  4.5191e-03  1.2568e-07  1.9274e-07  1.0829e-04  1.8261e-05  5.5116e-01  7.6672e-02  0:10:32  675
   326  5.0144e-03  1.3322e-07  1.9975e-07  1.0763e-04  1.8027e-05  5.5116e-01  7.6672e-02  0:08:25  674
   327  5.4973e-03  1.3015e-07  1.9172e-07  1.0689e-04  1.7822e-05  5.5116e-01  7.6672e-02  0:08:58  673
   328  5.9310e-03  1.1960e-07  1.8480e-07  1.0640e-04  1.7673e-05  5.5116e-01  7.6672e-02  0:09:24  672
   329  6.2348e-03  1.0732e-07  1.7825e-07  1.0624e-04  1.7539e-05  5.5116e-01  7.6672e-02  0:09:45  671
   330  6.0512e-03  1.0135e-07  1.6421e-07  1.0573e-04  1.7362e-05  5.5116e-01  7.6672e-02  0:07:47  670

  iter  continuity  x-velocity  y-velocity           k       omega          cl          cd     time/iter
   331  5.4979e-03  1.0263e-07  1.5047e-07  1.0490e-04  1.7157e-05  5.5116e-01  7.6672e-02  0:08:27  669
   332  4.7034e-03  1.1052e-07  1.4566e-07  1.0371e-04  1.6926e-05  5.5116e-01  7.6672e-02  0:08:59  668
   333  3.9624e-03  1.2510e-07  1.5574e-07  1.0234e-04  1.6678e-05  5.5116e-01  7.6672e-02  0:09:24  667
   334  4.0091e-03  1.3573e-07  1.7653e-07  1.0112e-04  1.6426e-05  5.5116e-01  7.6672e-02  0:09:43  666
   335  4.3937e-03  1.3659e-07  1.8811e-07  9.9794e-05  1.6203e-05  5.5116e-01  7.6673e-02  0:09:59  665
   336  4.8988e-03  1.4076e-07  1.9910e-07  9.8502e-05  1.5965e-05  5.5116e-01  7.6673e-02  0:10:11  664
   337  5.5165e-03  1.3005e-07  2.0519e-07  9.7882e-05  1.5766e-05  5.5116e-01  7.6673e-02  0:10:21  663
   338  6.1819e-03  1.1383e-07  1.9442e-07  9.7163e-05  1.5565e-05  5.5116e-01  7.6673e-02  0:10:28  662
   339  6.4319e-03  1.1270e-07  1.8190e-07  9.6537e-05  1.5375e-05  5.5116e-01  7.6673e-02  0:08:22  661
   340  6.1106e-03  9.1830e-08  1.6301e-07  9.5994e-05  1.5182e-05  5.5116e-01  7.6673e-02  0:08:53  660
   341  5.2801e-03  8.7367e-08  1.4028e-07  9.5356e-05  1.4982e-05  5.5116e-01  7.6673e-02  0:09:18  659

  iter  continuity  x-velocity  y-velocity           k       omega          cl          cd     time/iter
   342  4.5816e-03  9.8050e-08  1.2991e-07  9.4372e-05  1.4757e-05  5.5116e-01  7.6673e-02  0:09:37  658
   343  3.7038e-03  1.0913e-07  1.3666e-07  9.3132e-05  1.4503e-05  5.5116e-01  7.6673e-02  0:09:52  657
   344  3.7593e-03  1.2094e-07  1.5181e-07  9.2345e-05  1.4267e-05  5.5116e-01  7.6673e-02  0:07:53  656
   345  4.0891e-03  1.2949e-07  1.7688e-07  9.1538e-05  1.4043e-05  5.5116e-01  7.6673e-02  0:08:29  655
   346  4.5420e-03  1.3254e-07  1.8782e-07  9.0816e-05  1.3857e-05  5.5116e-01  7.6673e-02  0:08:57  654
   347  5.3809e-03  1.3795e-07  1.9632e-07  9.0008e-05  1.3643e-05  5.5116e-01  7.6673e-02  0:09:20  653
   348  6.1864e-03  1.1658e-07  1.8658e-07  8.9488e-05  1.3451e-05  5.5116e-01  7.6673e-02  0:09:38  652
   349  6.6123e-03  9.8932e-08  1.6812e-07  8.8795e-05  1.3231e-05  5.5116e-01  7.6673e-02  0:07:41  651
   350  6.3440e-03  9.6961e-08  1.4592e-07  8.8188e-05  1.3034e-05  5.5116e-01  7.6673e-02  0:08:18  650
   351  5.3613e-03  9.2059e-08  1.2017e-07  8.7477e-05  1.2823e-05  5.5116e-01  7.6673e-02  0:06:38  649
   352  4.3573e-03  8.8376e-08  9.9776e-08  8.6754e-05  1.2620e-05  5.5116e-01  7.6673e-02  0:07:28  648

  iter  continuity  x-velocity  y-velocity           k       omega          cl          cd     time/iter
   353  3.2723e-03  8.4828e-08  9.2939e-08  8.5869e-05  1.2422e-05  5.5116e-01  7.6673e-02  0:10:16  647
   354  3.1500e-03  9.4855e-08  1.0071e-07  8.4697e-05  1.2178e-05  5.5116e-01  7.6673e-02  0:10:22  646
   355  3.1646e-03  1.0734e-07  1.1241e-07  8.3407e-05  1.1911e-05  5.5116e-01  7.6673e-02  0:10:25  645
   356  3.3003e-03  1.2829e-07  1.2834e-07  8.2239e-05  1.1657e-05  5.5116e-01  7.6673e-02  0:10:28  644
   357  3.7518e-03  1.4046e-07  1.5216e-07  8.1552e-05  1.1426e-05  5.5116e-01  7.6673e-02  0:10:31  643
   358  4.3906e-03  1.4631e-07  1.7847e-07  8.1030e-05  1.1218e-05  5.5116e-01  7.6673e-02  0:10:32  642
   359  5.2506e-03  1.5055e-07  1.9564e-07  8.0439e-05  1.1008e-05  5.5116e-01  7.6673e-02  0:08:25  641
   360  6.2327e-03  1.4323e-07  1.9372e-07  7.9837e-05  1.0832e-05  5.5116e-01  7.6673e-02  0:08:51  640
   361  6.5108e-03  1.1774e-07  1.6990e-07  7.9134e-05  1.0671e-05  5.5116e-01  7.6673e-02  0:09:12  639
   362  6.0287e-03  9.5972e-08  1.4028e-07  7.8244e-05  1.0471e-05  5.5116e-01  7.6673e-02  0:07:21  638
   363  4.7812e-03  8.4770e-08  1.0877e-07  7.7224e-05  1.0248e-05  5.5116e-01  7.6673e-02  0:08:00  637

  iter  continuity  x-velocity  y-velocity           k       omega          cl          cd     time/iter
   364  3.7960e-03  7.9551e-08  8.5706e-08  7.5945e-05  1.0034e-05  5.5116e-01  7.6673e-02  0:08:30  636
   365  3.0182e-03  7.8856e-08  7.9097e-08  7.4869e-05  9.8111e-06  5.5116e-01  7.6673e-02  0:08:55  635
   366  2.7241e-03  8.0587e-08  8.0936e-08  7.3738e-05  9.5564e-06  5.5116e-01  7.6673e-02  0:07:07  634
   367  2.6853e-03  8.0871e-08  8.8543e-08  7.2470e-05  9.2750e-06  5.5116e-01  7.6673e-02  0:07:48  633
   368  2.7551e-03  8.8395e-08  1.0004e-07  7.1119e-05  8.9881e-06  5.5116e-01  7.6673e-02  0:08:20  632
   369  3.1251e-03  9.8746e-08  1.1855e-07  6.9787e-05  8.7123e-06  5.5116e-01  7.6673e-02  0:08:46  631
   370  3.8102e-03  1.1104e-07  1.3921e-07  6.8836e-05  8.4655e-06  5.5116e-01  7.6673e-02  0:09:06  630
   371  4.7620e-03  1.4194e-07  1.6425e-07  6.8108e-05  8.2594e-06  5.5116e-01  7.6673e-02  0:09:22  629
   372  5.7773e-03  1.4530e-07  1.6820e-07  6.7349e-05  8.0341e-06  5.5116e-01  7.6673e-02  0:09:34  628
   373  6.1505e-03  1.1723e-07  1.4886e-07  6.6627e-05  7.8050e-06  5.5116e-01  7.6673e-02  0:09:44  627
   374  5.6656e-03  9.0492e-08  1.2271e-07  6.5775e-05  7.5809e-06  5.5116e-01  7.6673e-02  0:09:52  626

  iter  continuity  x-velocity  y-velocity           k       omega          cl          cd     time/iter
   375  4.4926e-03  7.6423e-08  9.4810e-08  6.4782e-05  7.3753e-06  5.5116e-01  7.6673e-02  0:07:53  625
   376  3.4638e-03  8.2097e-08  7.3347e-08  6.3578e-05  7.1899e-06  5.5116e-01  7.6673e-02  0:08:22  624
   377  2.7921e-03  1.0777e-07  6.5345e-08  6.2379e-05  7.0382e-06  5.5116e-01  7.6673e-02  0:08:46  623
   378  2.7409e-03  1.1430e-07  6.6701e-08  6.1169e-05  6.8956e-06  5.5116e-01  7.6673e-02  0:09:04  622
   379  2.6026e-03  1.0562e-07  7.0732e-08  5.9979e-05  6.7130e-06  5.5116e-01  7.6673e-02  0:07:15  621
   380  2.5659e-03  9.9203e-08  7.6447e-08  5.8673e-05  6.4816e-06  5.5116e-01  7.6673e-02  0:07:51  620
   381  2.7765e-03  1.0716e-07  8.6180e-08  5.7232e-05  6.2164e-06  5.5116e-01  7.6673e-02  0:08:20  619
   382  3.2484e-03  1.1398e-07  9.8822e-08  5.5972e-05  5.9730e-06  5.5116e-01  7.6673e-02  0:08:43  618
   383  3.7648e-03  1.0975e-07  1.1539e-07  5.5327e-05  5.7996e-06  5.5116e-01  7.6673e-02  0:09:01  617
   384  4.3906e-03  1.2083e-07  1.3284e-07  5.4740e-05  5.6394e-06  5.5116e-01  7.6673e-02  0:09:15  616
   385  4.9540e-03  1.3545e-07  1.4317e-07  5.4107e-05  5.4954e-06  5.5116e-01  7.6673e-02  0:09:27  615

  iter  continuity  x-velocity  y-velocity           k       omega          cl          cd     time/iter
   386  4.8747e-03  1.2545e-07  1.2810e-07  5.3453e-05  5.3308e-06  5.5116e-01  7.6673e-02  0:09:35  614
   387  4.1169e-03  1.0895e-07  1.0296e-07  5.2569e-05  5.1311e-06  5.5116e-01  7.6673e-02  0:07:40  613
   388  3.2601e-03  1.0573e-07  7.9638e-08  5.1531e-05  4.8932e-06  5.5116e-01  7.6673e-02  0:08:09  612
   389  2.6986e-03  1.0327e-07  6.5645e-08  5.0418e-05  4.6276e-06  5.5116e-01  7.6673e-02  0:08:33  611
   390  2.4299e-03  8.2699e-08  6.0974e-08  4.9319e-05  4.3899e-06  5.5116e-01  7.6673e-02  0:08:52  610
   391  2.1486e-03  6.9488e-08  5.9099e-08  4.8150e-05  4.1828e-06  5.5116e-01  7.6673e-02  0:09:07  609
   392  1.8917e-03  6.1372e-08  5.6283e-08  4.6903e-05  3.9831e-06  5.5116e-01  7.6673e-02  0:09:18  608
   393  1.7728e-03  5.9064e-08  5.6281e-08  4.5947e-05  3.8118e-06  5.5116e-01  7.6673e-02  0:09:27  607
   394  1.7517e-03  6.0274e-08  5.9318e-08  4.5261e-05  3.6880e-06  5.5116e-01  7.6673e-02  0:09:34  606
   395  1.8728e-03  6.4522e-08  6.2976e-08  4.4627e-05  3.6093e-06  5.5116e-01  7.6673e-02  0:09:40  605
   396  2.1114e-03  6.6245e-08  6.9095e-08  4.3969e-05  3.5531e-06  5.5116e-01  7.6673e-02  0:09:44  604

  iter  continuity  x-velocity  y-velocity           k       omega          cl          cd     time/iter
   397  2.4238e-03  7.8281e-08  7.3850e-08  4.3175e-05  3.4440e-06  5.5116e-01  7.6673e-02  0:09:47  603
   398  2.9385e-03  8.4617e-08  7.8025e-08  4.2222e-05  3.2942e-06  5.5116e-01  7.6673e-02  0:09:49  602
   399  3.4150e-03  9.5241e-08  7.8610e-08  4.1103e-05  3.1328e-06  5.5116e-01  7.6673e-02  0:07:50  601
   400  3.5243e-03  1.0542e-07  7.0801e-08  3.9957e-05  2.9816e-06  5.5116e-01  7.6673e-02  0:08:16  600
   401  3.3606e-03  1.1476e-07  5.9257e-08  3.8710e-05  2.7941e-06  5.5116e-01  7.6673e-02  0:08:36  599
   402  2.9179e-03  1.0543e-07  5.0784e-08  3.7415e-05  2.6162e-06  5.5116e-01  7.6673e-02  0:06:52  598
   403  2.5803e-03  7.3204e-08  4.5043e-08  3.6103e-05  2.4864e-06  5.5116e-01  7.6673e-02  0:07:28  597
   404  2.1642e-03  6.0127e-08  4.0978e-08  3.4750e-05  2.3747e-06  5.5116e-01  7.6673e-02  0:07:57  596
   405  1.9421e-03  5.9162e-08  4.1079e-08  3.3422e-05  2.2790e-06  5.5116e-01  7.6673e-02  0:08:20  595
   406  1.9030e-03  6.4405e-08  4.5785e-08  3.2108e-05  2.1605e-06  5.5116e-01  7.6673e-02  0:08:38  594
   407  1.8729e-03  6.3751e-08  5.0738e-08  3.0893e-05  2.0390e-06  5.5116e-01  7.6673e-02  0:08:53  593

  iter  continuity  x-velocity  y-velocity           k       omega          cl          cd     time/iter
   408  2.0371e-03  7.1271e-08  5.5909e-08  2.9779e-05  1.9403e-06  5.5116e-01  7.6673e-02  0:09:04  592
   409  2.1932e-03  8.0071e-08  6.1264e-08  2.8610e-05  1.8495e-06  5.5116e-01  7.6673e-02  0:09:12  591
   410  2.2691e-03  7.9975e-08  6.3701e-08  2.7494e-05  1.7568e-06  5.5116e-01  7.6673e-02  0:09:19  590
   411  2.0793e-03  7.8657e-08  6.1279e-08  2.6331e-05  1.6372e-06  5.5116e-01  7.6673e-02  0:09:24  589
   412  1.8127e-03  7.1677e-08  4.8843e-08  2.5206e-05  1.5106e-06  5.5116e-01  7.6673e-02  0:09:28  588
   413  1.5417e-03  7.3474e-08  3.9526e-08  2.4050e-05  1.3968e-06  5.5116e-01  7.6673e-02  0:09:31  587
   414  1.2915e-03  8.1117e-08  3.1924e-08  2.3060e-05  1.3069e-06  5.5116e-01  7.6673e-02  0:09:33  586
   415  1.1794e-03  1.0679e-07  3.0150e-08  2.2122e-05  1.2514e-06  5.5116e-01  7.6673e-02  0:09:35  585
   416  1.2526e-03  1.1331e-07  2.9884e-08  2.1332e-05  1.2248e-06  5.5116e-01  7.6673e-02  0:11:33  584
   417  1.2104e-03  9.3755e-08  2.8691e-08  2.0535e-05  1.2032e-06  5.5116e-01  7.6673e-02  0:11:10  583
   418  1.1241e-03  8.3358e-08  2.4477e-08  1.9866e-05  1.1774e-06  5.5116e-01  7.6673e-02  0:12:48  582

  iter  continuity  x-velocity  y-velocity           k       omega          cl          cd     time/iter
   419  9.8385e-04  8.1210e-08  2.0704e-08  1.9167e-05  1.1249e-06  5.5116e-01  7.6673e-02  0:12:09  581
   420  1.0056e-03  7.4838e-08  1.7688e-08  1.8555e-05  1.0800e-06  5.5116e-01  7.6673e-02  0:13:35  580
   421  9.4129e-04  6.6022e-08  1.7319e-08  1.7859e-05  1.0402e-06  5.5116e-01  7.6673e-02  0:12:46  579
   422  9.3017e-04  6.6859e-08  1.5728e-08  1.7228e-05  1.0402e-06  5.5116e-01  7.6673e-02  0:12:08  578
   423  9.0428e-04  6.6788e-08  1.6967e-08  1.6562e-05  1.0371e-06  5.5116e-01  7.6673e-02  0:13:32  577
   424  9.7334e-04  6.5576e-08  1.7065e-08  1.5961e-05  1.0131e-06  5.5116e-01  7.6673e-02  0:12:44  576
   425  9.5735e-04  6.1884e-08  1.8478e-08  1.5377e-05  9.6251e-07  5.5116e-01  7.6673e-02  0:14:00  575
   426  1.0489e-03  6.0492e-08  1.7698e-08  1.4867e-05  9.1269e-07  5.5116e-01  7.6673e-02  0:13:05  574
   427  1.0569e-03  5.9842e-08  1.8001e-08  1.4361e-05  8.4876e-07  5.5116e-01  7.6673e-02  0:12:22  573
   428  1.1638e-03  6.1732e-08  1.7298e-08  1.3901e-05  7.9170e-07  5.5116e-01  7.6673e-02  0:13:41  572
   429  1.1786e-03  6.5688e-08  1.7723e-08  1.3419e-05  7.2130e-07  5.5116e-01  7.6673e-02  0:14:44  571

  iter  continuity  x-velocity  y-velocity           k       omega          cl          cd     time/iter
   430  1.3450e-03  8.5203e-08  1.8419e-08  1.2974e-05  6.7607e-07  5.5116e-01  7.6673e-02  0:13:40  570
   431  1.4325e-03  1.0035e-07  2.1577e-08  1.2542e-05  6.4959e-07  5.5116e-01  7.6673e-02  0:14:43  569
   432  1.6863e-03  8.9784e-08  2.3893e-08  1.2078e-05  6.2750e-07  5.5116e-01  7.6673e-02  0:13:38  568
   433  1.6285e-03  7.8601e-08  2.2539e-08  1.1667e-05  5.9762e-07  5.5116e-01  7.6673e-02  0:14:40  567
   434  1.7395e-03  7.7695e-08  2.0138e-08  1.1310e-05  5.8316e-07  5.5116e-01  7.6673e-02  0:13:36  566
   435  1.7541e-03  7.0027e-08  2.1034e-08  1.1007e-05  5.7792e-07  5.5116e-01  7.6673e-02  0:14:38  565
   436  1.8339e-03  6.8938e-08  1.8837e-08  1.0708e-05  5.5840e-07  5.5116e-01  7.6673e-02  0:13:34  564
   437  1.7654e-03  7.0609e-08  1.7727e-08  1.0474e-05  5.6564e-07  5.5116e-01  7.6673e-02  0:14:35  563
   438  1.8187e-03  7.2872e-08  1.6560e-08  1.0267e-05  5.7496e-07  5.5116e-01  7.6673e-02  0:13:31  562
   439  1.7186e-03  8.6912e-08  1.7317e-08  1.0053e-05  5.4437e-07  5.5116e-01  7.6673e-02  0:12:40  561
   440  1.8133e-03  1.1123e-07  1.7386e-08  9.9145e-06  5.3760e-07  5.5116e-01  7.6673e-02  0:13:51  560

  iter  continuity  x-velocity  y-velocity           k       omega          cl          cd     time/iter
   441  1.7975e-03  9.4269e-08  2.1887e-08  9.7068e-06  5.1690e-07  5.5116e-01  7.6673e-02  0:12:55  559
   442  1.7654e-03  9.2414e-08  1.9852e-08  9.6206e-06  5.8393e-07  5.5116e-01  7.6673e-02  0:12:11  558
   443  1.5299e-03  8.2593e-08  1.9732e-08  9.4334e-06  5.7854e-07  5.5116e-01  7.6673e-02  0:13:26  557
   444  1.4699e-03  7.5817e-08  1.8149e-08  9.3174e-06  6.1853e-07  5.5116e-01  7.6673e-02  0:12:35  556
   445  1.1838e-03  6.7365e-08  1.7282e-08  9.2083e-06  6.6088e-07  5.5116e-01  7.6673e-02  0:11:54  555
   446  1.1114e-03  6.3094e-08  1.4333e-08  9.1314e-06  6.9831e-07  5.5116e-01  7.6673e-02  0:13:12  554
   447  9.4401e-04  5.8667e-08  1.3782e-08  9.0810e-06  7.4577e-07  5.5116e-01  7.6673e-02  0:12:23  553
   448  8.8791e-04  5.3816e-08  1.1881e-08  8.9862e-06  7.5739e-07  5.5116e-01  7.6673e-02  0:13:34  552
   449  7.4173e-04  4.9740e-08  1.1774e-08  8.9150e-06  7.9050e-07  5.5116e-01  7.6673e-02  0:14:30  551
   450  6.7350e-04  5.0045e-08  9.3091e-09  8.7543e-06  7.8354e-07  5.5116e-01  7.6673e-02  0:13:25  550
   451  5.8647e-04  5.5005e-08  9.2482e-09  8.5773e-06  7.5729e-07  5.5116e-01  7.6673e-02  0:14:23  549

  iter  continuity  x-velocity  y-velocity           k       omega          cl          cd     time/iter
   452  5.7503e-04  6.7006e-08  8.5198e-09  8.3119e-06  6.8020e-07  5.5116e-01  7.6673e-02  0:13:18  548
   453  6.1488e-04  9.3219e-08  1.0857e-08  8.0953e-06  6.3312e-07  5.5116e-01  7.6673e-02  0:14:16  547
   454  7.2867e-04  8.2414e-08  1.2919e-08  7.8768e-06  6.0543e-07  5.5116e-01  7.6673e-02  0:13:13  546
   455  7.0758e-04  6.9225e-08  1.3575e-08  7.6870e-06  5.6708e-07  5.5116e-01  7.6673e-02  0:14:11  545
   456  6.1702e-04  6.7216e-08  1.0420e-08  7.5785e-06  5.5255e-07  5.5116e-01  7.6673e-02  0:13:09  544
   457  6.1927e-04  7.4119e-08  1.0011e-08  7.4098e-06  4.8986e-07  5.5116e-01  7.6673e-02  0:14:07  543
   458  5.9536e-04  7.5626e-08  9.8135e-09  7.3748e-06  5.4695e-07  5.5116e-01  7.6673e-02  0:13:05  542
   459  6.1883e-04  6.5069e-08  1.2091e-08  7.2604e-06  5.3607e-07  5.5116e-01  7.6673e-02  0:12:15  541
   460  5.6666e-04  5.3444e-08  1.0385e-08  7.2460e-06  6.1378e-07  5.5116e-01  7.6673e-02  0:11:35  540
   461  5.4420e-04  4.5284e-08  8.9553e-09  7.1379e-06  6.1511e-07  5.5116e-01  7.6673e-02  0:11:03  539
   462  4.8737e-04  4.1528e-08  6.9118e-09  7.0970e-06  6.6087e-07  5.5116e-01  7.6673e-02  0:10:37  538

  iter  continuity  x-velocity  y-velocity           k       omega          cl          cd     time/iter
   463  4.6548e-04  4.2604e-08  6.3245e-09  6.9881e-06  6.4771e-07  5.5116e-01  7.6673e-02  0:10:16  537
   464  4.2542e-04  4.8726e-08  5.6612e-09  6.8655e-06  6.1710e-07  5.5116e-01  7.6673e-02  0:09:59  536
   465  4.6217e-04  6.1355e-08  6.4498e-09  6.7002e-06  5.5969e-07  5.5116e-01  7.6673e-02  0:11:32  535
   466  5.2658e-04  8.4497e-08  7.3494e-09  6.5265e-06  5.0311e-07  5.5116e-01  7.6673e-02  0:11:00  534
   467  6.5168e-04  8.7872e-08  1.0746e-08  6.3760e-06  5.0238e-07  5.5116e-01  7.6673e-02  0:10:33  533
   468  6.7994e-04  7.7687e-08  1.1092e-08  6.2031e-06  4.6298e-07  5.5116e-01  7.6673e-02  0:10:12  532
   469  5.8776e-04  6.5875e-08  1.1112e-08  6.1306e-06  5.0549e-07  5.5116e-01  7.6673e-02  0:09:55  531
   470  5.7563e-04  5.9933e-08  8.8469e-09  5.9558e-06  4.7602e-07  5.5116e-01  7.6673e-02  0:09:41  530
   471  5.3451e-04  5.2882e-08  8.1769e-09  5.9398e-06  5.2312e-07  5.5116e-01  7.6673e-02  0:09:30  529
   472  4.6747e-04  5.2929e-08  6.6031e-09  5.8391e-06  5.1626e-07  5.5116e-01  7.6673e-02  0:09:21  528
   473  4.6315e-04  5.8788e-08  6.9213e-09  5.8186e-06  5.4473e-07  5.5116e-01  7.6673e-02  0:07:28  527

  iter  continuity  x-velocity  y-velocity           k       omega          cl          cd     time/iter
   474  4.6498e-04  6.6622e-08  7.2816e-09  5.8299e-06  5.9788e-07  5.5116e-01  7.6673e-02  0:07:43  526
   475  5.1355e-04  6.6562e-08  8.9106e-09  5.6878e-06  5.6982e-07  5.5116e-01  7.6673e-02  0:07:54  525
   476  4.8107e-04  6.4419e-08  8.9872e-09  5.5022e-06  5.3447e-07  5.5116e-01  7.6673e-02  0:08:04  524
   477  5.0226e-04  6.1460e-08  9.3845e-09  5.3071e-06  4.8450e-07  5.5116e-01  7.6673e-02  0:08:11  523
   478  4.9093e-04  5.5392e-08  8.8416e-09  5.1788e-06  4.7952e-07  5.5116e-01  7.6673e-02  0:08:16  522
   479  5.0343e-04  5.4235e-08  8.3901e-09  5.1252e-06  5.2059e-07  5.5116e-01  7.6673e-02  0:08:20  521
   480  4.8581e-04  5.9063e-08  7.5846e-09  5.0347e-06  5.2808e-07  5.5116e-01  7.6673e-02  0:06:40  520
   481  5.2237e-04  7.1064e-08  7.5855e-09  4.9772e-06  5.2189e-07  5.5116e-01  7.6673e-02  0:07:03  519
   482  5.5393e-04  8.4897e-08  7.8967e-09  4.8981e-06  4.8442e-07  5.5116e-01  7.6673e-02  0:07:21  518
   483  6.2660e-04  6.8692e-08  1.0323e-08  4.7909e-06  4.4288e-07  5.5116e-01  7.6673e-02  0:07:36  517
   484  5.7963e-04  6.2281e-08  9.8885e-09  4.7049e-06  4.2943e-07  5.5116e-01  7.6673e-02  0:07:47  516

  iter  continuity  x-velocity  y-velocity           k       omega          cl          cd     time/iter
   485  5.4144e-04  5.1807e-08  9.3559e-09  4.6035e-06  4.0746e-07  5.5116e-01  7.6673e-02  0:07:56  515
   486  4.7939e-04  4.5708e-08  7.2807e-09  4.5178e-06  3.9715e-07  5.5116e-01  7.6673e-02  0:08:03  514
   487  4.4040e-04  4.5281e-08  5.9344e-09  4.4175e-06  3.8236e-07  5.5116e-01  7.6673e-02  0:08:08  513
   488  3.9482e-04  4.7365e-08  5.1574e-09  4.2985e-06  3.5501e-07  5.5116e-01  7.6673e-02  0:06:30  512
   489  3.9660e-04  5.0289e-08  5.8430e-09  4.1988e-06  3.3804e-07  5.5116e-01  7.6673e-02  0:06:53  511
   490  3.9457e-04  5.6862e-08  6.1707e-09  4.1243e-06  3.4132e-07  5.5116e-01  7.6673e-02  0:07:12  510
   491  4.4676e-04  7.2700e-08  7.1512e-09  4.1167e-06  3.9401e-07  5.5116e-01  7.6673e-02  0:07:27  509
   492  5.2177e-04  6.5733e-08  9.0437e-09  4.0862e-06  4.6251e-07  5.5116e-01  7.6673e-02  0:07:38  508
   493  5.3334e-04  5.4077e-08  8.8849e-09  4.0465e-06  5.0808e-07  5.5116e-01  7.6673e-02  0:06:06  507
   494  4.8193e-04  4.8398e-08  7.6273e-09  4.0330e-06  5.4554e-07  5.5116e-01  7.6673e-02  0:06:33  506
   495  4.6419e-04  4.8483e-08  6.2995e-09  4.0327e-06  5.6522e-07  5.5116e-01  7.6673e-02  0:06:55  505

  iter  continuity  x-velocity  y-velocity           k       omega          cl          cd     time/iter
   496  4.4742e-04  5.3732e-08  5.8157e-09  4.0291e-06  5.6341e-07  5.5116e-01  7.6673e-02  0:07:12  504
   497  4.4875e-04  6.3136e-08  6.8489e-09  3.9978e-06  5.4883e-07  5.5116e-01  7.6673e-02  0:07:26  503
   498  4.5984e-04  6.3173e-08  7.5912e-09  3.9439e-06  5.5981e-07  5.5116e-01  7.6673e-02  0:07:36  502
   499  4.8201e-04  6.7039e-08  8.1339e-09  3.8789e-06  5.8669e-07  5.5116e-01  7.6673e-02  0:06:04  501
   500  5.3149e-04  8.0086e-08  8.3096e-09  3.8066e-06  6.0761e-07  5.5116e-01  7.6673e-02  0:06:31  500
   501  6.5220e-04  9.6512e-08  1.1069e-08  3.5889e-06  5.4290e-07  5.5116e-01  7.6673e-02  0:08:32  499
   502  7.1974e-04  7.8260e-08  1.3022e-08  3.4749e-06  5.5497e-07  5.5116e-01  7.6673e-02  0:08:28  498
   503  6.4720e-04  6.1363e-08  1.2169e-08  3.3965e-06  5.5284e-07  5.5116e-01  7.6673e-02  0:08:25  497
   504  5.2486e-04  5.2631e-08  1.0256e-08  3.3473e-06  5.5853e-07  5.5116e-01  7.6673e-02  0:08:22  496
   505  5.2808e-04  4.7519e-08  8.0154e-09  3.3553e-06  5.8141e-07  5.5116e-01  7.6673e-02  0:08:20  495
   506  4.7831e-04  4.2576e-08  6.8759e-09  3.2898e-06  5.6051e-07  5.5116e-01  7.6673e-02  0:06:39  494

  iter  continuity  x-velocity  y-velocity           k       omega          cl          cd     time/iter
   507  4.6244e-04  3.9261e-08  6.4936e-09  3.2604e-06  5.6615e-07  5.5116e-01  7.6673e-02  0:06:57  493
   508  4.1558e-04  4.0756e-08  6.0807e-09  3.1674e-06  5.2293e-07  5.5116e-01  7.6673e-02  0:07:12  492
   509  4.0491e-04  4.4457e-08  5.7555e-09  3.1118e-06  4.9809e-07  5.5116e-01  7.6673e-02  0:07:23  491
   510  3.9808e-04  5.1159e-08  5.7558e-09  2.9840e-06  4.3650e-07  5.5116e-01  7.6673e-02  0:07:32  490
   511  4.0673e-04  5.7790e-08  6.7127e-09  2.9465e-06  4.1978e-07  5.5116e-01  7.6673e-02  0:07:38  489
   512  4.4854e-04  6.6863e-08  7.2846e-09  2.9248e-06  4.3286e-07  5.5116e-01  7.6673e-02  0:07:43  488
   513  4.9058e-04  6.4429e-08  8.4619e-09  2.8458e-06  4.4042e-07  5.5116e-01  7.6673e-02  0:06:10  487
   514  5.0662e-04  6.9805e-08  8.3024e-09  2.8204e-06  4.7877e-07  5.5116e-01  7.6673e-02  0:06:33  486
   515  5.0898e-04  6.7224e-08  8.7882e-09  2.7697e-06  5.0309e-07  5.5116e-01  7.6673e-02  0:06:50  485
   516  5.1721e-04  5.9413e-08  8.3324e-09  2.7047e-06  5.2159e-07  5.5116e-01  7.6673e-02  0:07:04  484
   517  4.6651e-04  5.7190e-08  7.0558e-09  2.6139e-06  5.0691e-07  5.5116e-01  7.6673e-02  0:07:15  483

  iter  continuity  x-velocity  y-velocity           k       omega          cl          cd     time/iter
   518  4.4965e-04  6.0359e-08  6.4711e-09  2.5419e-06  4.8330e-07  5.5116e-01  7.6673e-02  0:05:48  482
   519  4.4871e-04  5.9736e-08  6.7330e-09  2.4732e-06  4.7164e-07  5.5116e-01  7.6673e-02  0:07:50  481
   520  4.3587e-04  5.1935e-08  6.4999e-09  2.4426e-06  4.9058e-07  5.5116e-01  7.6673e-02  0:07:51  480
   521  4.2946e-04  5.0956e-08  6.3082e-09  2.4004e-06  5.0988e-07  5.5116e-01  7.6673e-02  0:06:16  479
   522  4.0065e-04  5.1928e-08  5.2941e-09  2.3632e-06  5.1723e-07  5.5116e-01  7.6673e-02  0:06:36  478
   523  4.3731e-04  5.4914e-08  6.1388e-09  2.3513e-06  5.1743e-07  5.5116e-01  7.6673e-02  0:06:51  477
   524  4.7956e-04  6.2678e-08  7.2256e-09  2.4898e-06  5.8592e-07  5.5116e-01  7.6673e-02  0:07:04  476
   525  5.3137e-04  5.3487e-08  8.9781e-09  2.5024e-06  5.9974e-07  5.5116e-01  7.6673e-02  0:05:38  475
   526  4.2274e-04  4.7743e-08  6.9940e-09  2.5107e-06  6.1881e-07  5.5116e-01  7.6673e-02  0:06:05  474
   527  4.2599e-04  5.2659e-08  6.2349e-09  2.4435e-06  5.8291e-07  5.5116e-01  7.6673e-02  0:06:26  473
   528  4.0465e-04  6.6430e-08  5.8753e-09  2.3591e-06  5.3229e-07  5.5116e-01  7.6673e-02  0:06:42  472

  iter  continuity  x-velocity  y-velocity           k       omega          cl          cd     time/iter
   529  5.3053e-04  8.8509e-08  8.5774e-09  2.3260e-06  4.9643e-07  5.5116e-01  7.6673e-02  0:06:55  471
   530  6.4129e-04  9.7232e-08  1.2985e-08  2.2060e-06  4.4796e-07  5.5116e-01  7.6673e-02  0:07:06  470
   531  6.6144e-04  7.2999e-08  1.4000e-08  2.1080e-06  4.4203e-07  5.5116e-01  7.6673e-02  0:07:14  469
   532  5.5595e-04  6.0658e-08  1.0575e-08  1.9697e-06  4.1856e-07  5.5116e-01  7.6673e-02  0:05:46  468
   533  5.5632e-04  6.1276e-08  8.9382e-09  1.9563e-06  4.4007e-07  5.5116e-01  7.6673e-02  0:06:10  467
   534  5.4788e-04  6.7247e-08  8.1458e-09  1.9882e-06  4.6978e-07  5.5116e-01  7.6673e-02  0:06:28  466
   535  5.6869e-04  7.5484e-08  9.5362e-09  2.1683e-06  5.8352e-07  5.5116e-01  7.6673e-02  0:06:43  465
   536  5.6768e-04  7.7971e-08  9.0576e-09  2.3439e-06  6.9165e-07  5.5116e-01  7.6673e-02  0:06:55  464
   537  5.6007e-04  6.8830e-08  9.3083e-09  2.3993e-06  7.4792e-07  5.5116e-01  7.6673e-02  0:07:03  463
   538  5.2320e-04  5.4906e-08  1.0164e-08  2.3290e-06  7.3673e-07  5.5116e-01  7.6673e-02  0:07:10  462
   539  4.7302e-04  4.4543e-08  8.6376e-09  2.2637e-06  7.1494e-07  5.5116e-01  7.6673e-02  0:07:16  461

  iter  continuity  x-velocity  y-velocity           k       omega          cl          cd     time/iter
   540  4.6168e-04  4.5073e-08  7.0131e-09  2.2122e-06  6.9187e-07  5.5116e-01  7.6673e-02  0:05:48  460
   541  4.6057e-04  5.2848e-08  6.5851e-09  2.1908e-06  6.6986e-07  5.5116e-01  7.6673e-02  0:06:10  459
   542  4.8946e-04  5.4734e-08  7.3161e-09  2.1126e-06  6.2348e-07  5.5116e-01  7.6673e-02  0:06:27  458
   543  5.0519e-04  6.1805e-08  8.0228e-09  2.0398e-06  5.7760e-07  5.5116e-01  7.6673e-02  0:06:40  457
   544  5.2164e-04  6.2781e-08  9.0821e-09  1.9975e-06  5.4887e-07  5.5116e-01  7.6673e-02  0:06:50  456
   545  5.2984e-04  4.9176e-08  9.3173e-09  1.9039e-06  5.1350e-07  5.5116e-01  7.6673e-02  0:05:28  455
   546  4.6784e-04  5.3958e-08  6.7405e-09  1.8097e-06  4.8718e-07  5.5116e-01  7.6673e-02  0:05:52  454
   547  5.1037e-04  6.3838e-08  7.0570e-09  1.7144e-06  4.5777e-07  5.5116e-01  7.6673e-02  0:06:12  453
   548  5.7255e-04  6.8672e-08  8.6095e-09  1.6801e-06  4.7280e-07  5.5116e-01  7.6673e-02  0:06:27  452
   549  6.0564e-04  6.2091e-08  1.0443e-08  1.6730e-06  4.9906e-07  5.5116e-01  7.6673e-02  0:06:39  451
   550  5.6656e-04  7.1243e-08  9.2906e-09  1.7466e-06  5.5672e-07  5.5116e-01  7.6673e-02  0:05:19  450

  iter  continuity  x-velocity  y-velocity           k       omega          cl          cd     time/iter
   551  5.9394e-04  8.6169e-08  9.7262e-09  1.8249e-06  6.0675e-07  5.5116e-01  7.6673e-02  0:05:44  449
   552  6.8302e-04  9.0908e-08  1.1892e-08  1.7765e-06  5.6831e-07  5.5116e-01  7.6673e-02  0:06:04  448
   553  7.3904e-04  9.2893e-08  1.3573e-08  1.6389e-06  4.8100e-07  5.5116e-01  7.6673e-02  0:06:20  447
   554  6.9278e-04  7.4544e-08  1.4026e-08  1.6162e-06  4.7947e-07  5.5116e-01  7.6673e-02  0:06:33  446
   555  7.0674e-04  5.6706e-08  1.2250e-08  1.5851e-06  4.9713e-07  5.5116e-01  7.6673e-02  0:06:42  445
   556  5.8305e-04  4.4454e-08  9.9686e-09  1.6455e-06  5.6410e-07  5.5116e-01  7.6673e-02  0:06:50  444
   557  5.5003e-04  4.1752e-08  8.7217e-09  1.6878e-06  6.1206e-07  5.5116e-01  7.6673e-02  0:06:56  443
   558  4.8846e-04  4.4170e-08  6.9611e-09  1.6973e-06  6.2191e-07  5.5116e-01  7.6673e-02  0:05:32  442
   559  4.9550e-04  5.1870e-08  7.4338e-09  1.7226e-06  6.2759e-07  5.5116e-01  7.6673e-02  0:05:53  441
   560  4.8489e-04  5.2976e-08  7.4392e-09  1.6412e-06  5.5926e-07  5.5116e-01  7.6673e-02  0:06:10  440
   561  5.3749e-04  7.0999e-08  8.8697e-09  1.5663e-06  4.8182e-07  5.5116e-01  7.6673e-02  0:06:23  439

  iter  continuity  x-velocity  y-velocity           k       omega          cl          cd     time/iter
   562  6.3433e-04  7.1328e-08  1.0773e-08  1.4773e-06  4.2178e-07  5.5116e-01  7.6673e-02  0:05:06  438
   563  6.5817e-04  5.2025e-08  1.1069e-08  1.4108e-06  3.8739e-07  5.5116e-01  7.6673e-02  0:05:31  437
   564  5.6692e-04  4.8783e-08  9.3361e-09  1.3718e-06  3.5959e-07  5.5116e-01  7.6673e-02  0:05:52  436
   565  5.4451e-04  4.9215e-08  7.6338e-09  1.4187e-06  3.8577e-07  5.5116e-01  7.6673e-02  0:06:08  435
   566  5.0011e-04  4.6316e-08  7.1534e-09  1.5464e-06  4.6010e-07  5.5116e-01  7.6673e-02  0:04:54  434
   567  4.7567e-04  4.0369e-08  7.7229e-09  1.5611e-06  4.7298e-07  5.5116e-01  7.6673e-02  0:05:21  433
   568  4.3698e-04  3.9305e-08  7.3978e-09  1.5983e-06  4.9485e-07  5.5116e-01  7.6673e-02  0:05:43  432
   569  4.2960e-04  4.2761e-08  6.6199e-09  1.5526e-06  4.6412e-07  5.5116e-01  7.6673e-02  0:06:00  431
   570  4.3705e-04  4.6180e-08  6.6908e-09  1.5542e-06  4.5891e-07  5.5116e-01  7.6673e-02  0:04:47  430
   571  4.4269e-04  3.8690e-08  6.9987e-09  1.4805e-06  4.3779e-07  5.5116e-01  7.6673e-02  0:06:41  429
   572  4.1141e-04  3.4453e-08  6.3317e-09  1.4565e-06  4.4103e-07  5.5116e-01  7.6673e-02  0:05:20  428

  iter  continuity  x-velocity  y-velocity           k       omega          cl          cd     time/iter
   573  3.7002e-04  3.3621e-08  5.3847e-09  1.4524e-06  4.6502e-07  5.5116e-01  7.6673e-02  0:05:41  427
   574  3.5730e-04  3.5232e-08  4.8357e-09  1.4586e-06  4.9849e-07  5.5116e-01  7.6673e-02  0:05:57  426
   575  3.5534e-04  4.1118e-08  4.8934e-09  1.4741e-06  5.4218e-07  5.5116e-01  7.6673e-02  0:06:10  425
   576  3.7485e-04  5.4344e-08  5.8479e-09  1.4869e-06  5.5217e-07  5.5116e-01  7.6673e-02  0:06:20  424
   577  4.3693e-04  7.4433e-08  6.8250e-09  1.3881e-06  4.8373e-07  5.5116e-01  7.6673e-02  0:06:28  423
   578  5.2857e-04  7.8771e-08  9.3096e-09  1.3528e-06  4.5255e-07  5.5116e-01  7.6673e-02  0:05:10  422
   579  5.7989e-04  6.0258e-08  1.0507e-08  1.2448e-06  3.9204e-07  5.5116e-01  7.6673e-02  0:05:31  421
   580  5.2344e-04  5.3029e-08  9.5839e-09  1.2650e-06  4.1415e-07  5.5116e-01  7.6673e-02  0:05:48  420
   581  4.6348e-04  4.2552e-08  8.0446e-09  1.1552e-06  3.7287e-07  5.5116e-01  7.6673e-02  0:06:02  419
   582  4.2595e-04  3.6180e-08  5.9573e-09  1.1775e-06  4.0117e-07  5.5116e-01  7.6673e-02  0:04:49  418
   583  3.8314e-04  3.8939e-08  5.4465e-09  1.1474e-06  3.9606e-07  5.5116e-01  7.6673e-02  0:05:14  417

  iter  continuity  x-velocity  y-velocity           k       omega          cl          cd     time/iter
   584  3.6455e-04  4.4861e-08  5.3491e-09  1.2088e-06  4.4375e-07  5.5116e-01  7.6673e-02  0:05:34  416
   585  3.7911e-04  4.6259e-08  6.4685e-09  1.2949e-06  4.8439e-07  5.5116e-01  7.6673e-02  0:05:49  415
   586  3.6179e-04  5.5286e-08  6.4788e-09  1.2953e-06  4.6001e-07  5.5116e-01  7.6673e-02  0:06:02  414
   587  4.4032e-04  6.1616e-08  7.7083e-09  1.3849e-06  4.9203e-07  5.5116e-01  7.6673e-02  0:04:49  413
   588  4.9970e-04  5.9291e-08  8.9072e-09  1.4649e-06  5.4154e-07  5.5116e-01  7.6673e-02  0:06:35  412
   589  5.4068e-04  5.6326e-08  8.9567e-09  1.4793e-06  5.4951e-07  5.5116e-01  7.6673e-02  0:06:38  411
   590  5.2427e-04  4.9520e-08  8.8159e-09  1.5085e-06  5.6778e-07  5.5116e-01  7.6673e-02  0:05:17  410
   591  4.6933e-04  4.2069e-08  7.3806e-09  1.4952e-06  5.6756e-07  5.5116e-01  7.6673e-02  0:05:35  409
   592  4.3022e-04  3.6452e-08  5.9001e-09  1.4809e-06  5.6441e-07  5.5116e-01  7.6673e-02  0:05:49  408
   593  3.9476e-04  3.7631e-08  5.4791e-09  1.4141e-06  5.2906e-07  5.5116e-01  7.6673e-02  0:04:38  407
   594  3.9139e-04  4.4537e-08  5.4070e-09  1.3750e-06  4.9923e-07  5.5116e-01  7.6673e-02  0:05:03  406

  iter  continuity  x-velocity  y-velocity           k       omega          cl          cd     time/iter
   595  4.1394e-04  4.3784e-08  6.6747e-09  1.2750e-06  4.5586e-07  5.5116e-01  7.6673e-02  0:05:23  405
   596  4.0109e-04  3.6996e-08  6.2443e-09  1.2037e-06  4.5102e-07  5.5116e-01  7.6673e-02  0:05:39  404
   597  3.7218e-04  3.3966e-08  5.5325e-09  1.1135e-06  4.4319e-07  5.5116e-01  7.6673e-02  0:04:30  403
   598  3.4091e-04  3.3992e-08  4.3788e-09  1.0722e-06  4.6487e-07  5.5116e-01  7.6673e-02  0:04:56  402
   599  3.3132e-04  3.7295e-08  4.3279e-09  1.0241e-06  4.7287e-07  5.5116e-01  7.6673e-02  0:05:16  401
   600  3.1770e-04  3.1248e-08  4.4218e-09  9.8584e-07  4.7607e-07  5.5116e-01  7.6673e-02  0:04:13  400
   601  3.0561e-04  2.8294e-08  4.3894e-09  9.6946e-07  4.7535e-07  5.5116e-01  7.6673e-02  0:04:41  399
   602  2.8860e-04  2.6530e-08  4.1851e-09  9.9106e-07  4.7778e-07  5.5116e-01  7.6673e-02  0:05:04  398
   603  2.7641e-04  2.6694e-08  3.7237e-09  9.8917e-07  4.7510e-07  5.5116e-01  7.6673e-02  0:05:22  397
   604  2.6565e-04  2.7381e-08  3.4332e-09  9.9314e-07  4.7545e-07  5.5116e-01  7.6673e-02  0:04:17  396
   605  2.6100e-04  2.9683e-08  3.3333e-09  9.8778e-07  4.6633e-07  5.5116e-01  7.6673e-02  0:06:03  395

  iter  continuity  x-velocity  y-velocity           k       omega          cl          cd     time/iter
   606  2.6367e-04  3.1449e-08  3.5219e-09  9.8025e-07  4.5094e-07  5.5116e-01  7.6673e-02  0:04:50  394
   607  2.6861e-04  3.0633e-08  3.9302e-09  9.6670e-07  4.2108e-07  5.5116e-01  7.6673e-02  0:05:10  393
   608  2.8034e-04  3.7111e-08  4.1376e-09  9.3231e-07  3.6759e-07  5.5116e-01  7.6673e-02  0:05:26  392
   609  3.2314e-04  5.2075e-08  4.9291e-09  9.0810e-07  3.2896e-07  5.5116e-01  7.6673e-02  0:05:38  391
   610  3.8703e-04  4.8991e-08  6.3933e-09  8.6661e-07  3.3408e-07  5.5116e-01  7.6673e-02  0:05:48  390
   611  4.1079e-04  3.8791e-08  6.9219e-09  8.3794e-07  3.5660e-07  5.5116e-01  7.6673e-02  0:04:37  389
   612  3.6204e-04  3.3797e-08  6.0298e-09  8.1830e-07  3.8136e-07  5.5116e-01  7.6673e-02  0:04:59  388
   613  3.6045e-04  3.3820e-08  4.7419e-09  8.1951e-07  4.1014e-07  5.5116e-01  7.6673e-02  0:05:16  387
   614  3.4547e-04  3.7546e-08  4.4038e-09  8.4475e-07  4.3728e-07  5.5116e-01  7.6673e-02  0:04:12  386
   615  3.4399e-04  4.6005e-08  4.7206e-09  9.1992e-07  4.8556e-07  5.5116e-01  7.6673e-02  0:04:38  385
   616  3.9013e-04  6.3845e-08  5.9177e-09  1.0204e-06  5.3111e-07  5.5116e-01  7.6673e-02  0:04:59  384

  iter  continuity  x-velocity  y-velocity           k       omega          cl          cd     time/iter
   617  5.3748e-04  8.3403e-08  8.7424e-09  1.0635e-06  5.1141e-07  5.5116e-01  7.6673e-02  0:05:15  383
   618  6.4082e-04  7.1489e-08  1.1912e-08  1.0538e-06  4.9478e-07  5.5116e-01  7.6673e-02  0:05:28  382
   619  5.9968e-04  6.1760e-08  1.1055e-08  1.0890e-06  5.1905e-07  5.5116e-01  7.6673e-02  0:04:22  381
   620  5.3367e-04  4.8339e-08  9.8817e-09  1.1261e-06  5.6288e-07  5.5116e-01  7.6673e-02  0:04:45  380
   621  5.3140e-04  4.1922e-08  8.0931e-09  1.1718e-06  6.0639e-07  5.5116e-01  7.6673e-02  0:05:03  379
   622  4.9069e-04  3.9626e-08  6.7025e-09  1.1955e-06  6.3385e-07  5.5116e-01  7.6673e-02  0:05:17  378
   623  4.5211e-04  3.0399e-08  6.1768e-09  1.1378e-06  6.2307e-07  5.5116e-01  7.6673e-02  0:05:29  377
   624  4.0944e-04  2.6753e-08  5.9027e-09  1.0708e-06  5.9898e-07  5.5116e-01  7.6673e-02  0:05:37  376
   625  3.8243e-04  2.8606e-08  5.4232e-09  1.0037e-06  5.6829e-07  5.5116e-01  7.6673e-02  0:04:29  375
   626  3.6549e-04  3.3164e-08  4.9135e-09  9.4908e-07  5.3911e-07  5.5116e-01  7.6673e-02  0:04:50  374
   627  3.6248e-04  3.7461e-08  4.8461e-09  8.9981e-07  4.9062e-07  5.5116e-01  7.6673e-02  0:05:06  373

  iter  continuity  x-velocity  y-velocity           k       omega          cl          cd     time/iter
   628  3.6924e-04  4.3514e-08  5.1847e-09  9.0349e-07  4.6540e-07  5.5116e-01  7.6673e-02  0:05:18  372
   629  3.9622e-04  5.3403e-08  6.2752e-09  8.8752e-07  4.4053e-07  5.5116e-01  7.6673e-02  0:04:14  371
   630  4.3493e-04  6.1445e-08  7.0917e-09  9.1104e-07  4.2445e-07  5.5116e-01  7.6673e-02  0:04:37  370
   631  4.7775e-04  6.0273e-08  8.1250e-09  9.1394e-07  4.2886e-07  5.5116e-01  7.6673e-02  0:04:54  369
   632  4.7739e-04  5.8068e-08  7.6055e-09  8.7891e-07  4.0064e-07  5.5116e-01  7.6673e-02  0:05:09  368
   633  4.6256e-04  5.5472e-08  7.1785e-09  8.9349e-07  4.1376e-07  5.5116e-01  7.6673e-02  0:04:06  367
   634  4.5004e-04  5.3110e-08  6.1722e-09  9.0195e-07  4.0713e-07  5.5116e-01  7.6673e-02  0:04:30  366
   635  4.3833e-04  5.1375e-08  6.0156e-09  9.3803e-07  4.2247e-07  5.5116e-01  7.6673e-02  0:04:48  365
   636  4.1648e-04  3.8255e-08  5.9351e-09  9.6114e-07  4.4398e-07  5.5116e-01  7.6673e-02  0:05:03  364
   637  3.7475e-04  3.4942e-08  5.4578e-09  9.5458e-07  4.4573e-07  5.5116e-01  7.6673e-02  0:04:01  363
   638  3.4650e-04  3.8010e-08  4.9276e-09  9.6120e-07  4.5654e-07  5.5116e-01  7.6673e-02  0:05:37  362

  iter  continuity  x-velocity  y-velocity           k       omega          cl          cd     time/iter
   639  3.7062e-04  5.0266e-08  4.9300e-09  9.6010e-07  4.3938e-07  5.5116e-01  7.6673e-02  0:04:29  361
   640  4.8193e-04  7.6064e-08  6.8671e-09  1.1193e-06  4.8250e-07  5.5116e-01  7.6673e-02  0:04:47  360
   641  6.8566e-04  1.0101e-07  1.0858e-08  1.2616e-06  5.4332e-07  5.5116e-01  7.6673e-02  0:05:01  359
   642  7.5172e-04  8.5057e-08  1.3633e-08  1.2749e-06  5.2561e-07  5.5116e-01  7.6673e-02  0:05:11  358
   643  7.1646e-04  7.7235e-08  1.2894e-08  1.1797e-06  4.8246e-07  5.5116e-01  7.6673e-02  0:05:20  357
   644  6.5504e-04  6.5711e-08  1.2258e-08  1.1198e-06  4.6628e-07  5.5116e-01  7.6673e-02  0:04:15  356
   645  6.0941e-04  5.9076e-08  1.0554e-08  1.1258e-06  4.9369e-07  5.5116e-01  7.6673e-02  0:04:35  355
   646  5.6681e-04  5.6529e-08  9.8865e-09  1.1678e-06  5.5139e-07  5.5116e-01  7.6673e-02  0:04:50  354
   647  5.6779e-04  4.9954e-08  1.0018e-08  1.2092e-06  6.0562e-07  5.5116e-01  7.6673e-02  0:05:02  353
   648  5.4701e-04  5.1683e-08  9.0240e-09  1.2650e-06  6.5935e-07  5.5116e-01  7.6673e-02  0:04:01  352
   649  5.5607e-04  5.6730e-08  8.4977e-09  1.3571e-06  7.1399e-07  5.5116e-01  7.6673e-02  0:04:22  351

  iter  continuity  x-velocity  y-velocity           k       omega          cl          cd     time/iter
   650  6.2676e-04  6.9133e-08  9.5767e-09  1.4900e-06  7.6918e-07  5.5116e-01  7.6673e-02  0:04:39  350
   651  6.5241e-04  6.8452e-08  1.1457e-08  1.4709e-06  7.5955e-07  5.5116e-01  7.6673e-02  0:04:53  349
   652  6.3869e-04  6.9299e-08  1.1699e-08  1.4365e-06  7.3301e-07  5.5116e-01  7.6673e-02  0:05:03  348
   653  5.8045e-04  6.5932e-08  1.0328e-08  1.3309e-06  6.7505e-07  5.5116e-01  7.6673e-02  0:04:02  347
   654  6.1568e-04  6.6947e-08  1.1316e-08  1.2156e-06  5.9929e-07  5.5116e-01  7.6673e-02  0:04:22  346
   655  6.1856e-04  6.9967e-08  1.1665e-08  1.1825e-06  5.4300e-07  5.5116e-01  7.6673e-02  0:05:47  345
   656  6.7482e-04  7.6144e-08  1.2619e-08  1.1458e-06  4.8674e-07  5.5116e-01  7.6673e-02  0:05:46  344
   657  6.7843e-04  7.9335e-08  1.2758e-08  1.0730e-06  4.1192e-07  5.5116e-01  7.6673e-02  0:04:36  343
   658  7.0864e-04  8.4349e-08  1.2926e-08  9.9995e-07  3.5359e-07  5.5116e-01  7.6673e-02  0:04:48  342
   659  6.9065e-04  8.3476e-08  1.3711e-08  1.0388e-06  3.7760e-07  5.5116e-01  7.6673e-02  0:04:58  341
   660  6.8065e-04  8.1262e-08  1.2120e-08  1.1456e-06  4.3893e-07  5.5116e-01  7.6673e-02  0:05:06  340

  iter  continuity  x-velocity  y-velocity           k       omega          cl          cd     time/iter
   661  6.8371e-04  8.5164e-08  1.1806e-08  1.3330e-06  5.3505e-07  5.5116e-01  7.6673e-02  0:05:12  339
   662  7.0765e-04  7.7399e-08  1.2371e-08  1.3324e-06  5.4771e-07  5.5116e-01  7.6673e-02  0:04:09  338
   663  6.9455e-04  7.9469e-08  1.2981e-08  1.3515e-06  5.6093e-07  5.5116e-01  7.6673e-02  0:04:26  337
   664  6.7548e-04  8.5991e-08  1.2336e-08  1.4487e-06  5.6696e-07  5.5116e-01  7.6673e-02  0:04:39  336
   665  7.6667e-04  7.7186e-08  1.5990e-08  1.3675e-06  5.2557e-07  5.5116e-01  7.6673e-02  0:04:50  335
   666  5.9729e-04  6.2583e-08  1.1467e-08  1.3576e-06  5.0499e-07  5.5116e-01  7.6673e-02  0:04:58  334
   667  6.0718e-04  6.3169e-08  9.8932e-09  1.3590e-06  5.0216e-07  5.5116e-01  7.6673e-02  0:05:04  333
   668  6.1130e-04  7.0769e-08  9.3536e-09  1.4189e-06  5.2296e-07  5.5116e-01  7.6673e-02  0:04:03  332
   669  6.0564e-04  6.4769e-08  1.1464e-08  1.4585e-06  5.6701e-07  5.5116e-01  7.6673e-02  0:04:20  331
   670  6.1685e-04  6.2306e-08  1.0237e-08  1.4750e-06  5.8676e-07  5.5116e-01  7.6673e-02  0:04:33  330
   671  5.1232e-04  6.5749e-08  1.1303e-08  1.3424e-06  5.5419e-07  5.5116e-01  7.6673e-02  0:05:49  329

  iter  continuity  x-velocity  y-velocity           k       omega          cl          cd     time/iter
   672  5.4579e-04  6.1512e-08  1.0153e-08  1.3149e-06  5.5543e-07  5.5116e-01  7.6673e-02  0:05:44  328
   673  4.8932e-04  5.9387e-08  1.1125e-08  1.2210e-06  5.2836e-07  5.5116e-01  7.6673e-02  0:05:40  327
   674  5.3896e-04  6.6029e-08  9.9876e-09  1.2069e-06  5.0590e-07  5.5116e-01  7.6673e-02  0:04:31  326
   675  5.9541e-04  8.8172e-08  1.0072e-08  1.1857e-06  4.7026e-07  5.5116e-01  7.6673e-02  0:04:41  325
   676  6.9962e-04  7.4631e-08  1.2398e-08  1.1628e-06  4.4042e-07  5.5116e-01  7.6673e-02  0:04:49  324
   677  6.9265e-04  6.0580e-08  1.2433e-08  1.1758e-06  4.4552e-07  5.5116e-01  7.6673e-02  0:04:55  323
   678  6.3521e-04  5.2711e-08  1.1509e-08  1.1660e-06  4.5155e-07  5.5116e-01  7.6673e-02  0:05:00  322
   679  5.6536e-04  4.2458e-08  9.3515e-09  1.1249e-06  4.4275e-07  5.5116e-01  7.6673e-02  0:05:03  321
   680  5.2441e-04  2.9601e-08  7.5571e-09  1.0670e-06  4.2774e-07  5.5116e-01  7.6673e-02  0:04:02  320
   681  4.4483e-04  2.3942e-08  6.2169e-09  1.0160e-06  4.1455e-07  5.5116e-01  7.6673e-02  0:04:17  319
   682  3.9822e-04  2.3422e-08  5.6017e-09  9.6548e-07  3.9445e-07  5.5116e-01  7.6673e-02  0:04:28  318

  iter  continuity  x-velocity  y-velocity           k       omega          cl          cd     time/iter
   683  3.6772e-04  2.5993e-08  5.2973e-09  9.1217e-07  3.6219e-07  5.5116e-01  7.6673e-02  0:04:37  317
   684  3.6038e-04  3.2992e-08  5.3518e-09  8.8039e-07  3.2654e-07  5.5116e-01  7.6673e-02  0:04:44  316
   685  3.7850e-04  4.4107e-08  5.8831e-09  9.0321e-07  3.0828e-07  5.5116e-01  7.6673e-02  0:04:50  315
   686  4.4118e-04  5.8406e-08  7.1075e-09  1.0071e-06  3.5728e-07  5.5116e-01  7.6673e-02  0:03:51  314
   687  5.1392e-04  4.2070e-08  8.9064e-09  1.0594e-06  4.1263e-07  5.5116e-01  7.6673e-02  0:05:09  313
   688  4.7853e-04  3.6450e-08  7.9431e-09  1.1192e-06  4.5491e-07  5.5116e-01  7.6673e-02  0:05:09  312
   689  4.2610e-04  3.3027e-08  6.5155e-09  1.1814e-06  4.9480e-07  5.5116e-01  7.6673e-02  0:04:07  311
   690  4.0662e-04  3.1663e-08  5.2115e-09  1.2247e-06  5.1879e-07  5.5116e-01  7.6673e-02  0:04:19  310
   691  3.7440e-04  3.5314e-08  4.8517e-09  1.2620e-06  5.2597e-07  5.5116e-01  7.6673e-02  0:04:28  309
   692  3.6036e-04  4.1687e-08  5.2568e-09  1.3034e-06  5.2989e-07  5.5116e-01  7.6673e-02  0:04:35  308
   693  3.8468e-04  5.6292e-08  6.0759e-09  1.3441e-06  5.4101e-07  5.5116e-01  7.6673e-02  0:03:40  307

  iter  continuity  x-velocity  y-velocity           k       omega          cl          cd     time/iter
   694  4.5937e-04  6.6912e-08  7.7266e-09  1.3510e-06  5.6054e-07  5.5116e-01  7.6673e-02  0:03:56  306
   695  5.9514e-04  8.3388e-08  9.7941e-09  1.2720e-06  5.2946e-07  5.5116e-01  7.6673e-02  0:04:09  305
   696  6.8697e-04  6.6552e-08  1.2601e-08  1.0964e-06  4.7041e-07  5.5116e-01  7.6673e-02  0:04:20  304
   697  6.1700e-04  5.5258e-08  1.1017e-08  1.0344e-06  4.6254e-07  5.5116e-01  7.6673e-02  0:04:28  303
   698  5.1382e-04  5.3374e-08  9.1295e-09  1.0473e-06  4.9965e-07  5.5116e-01  7.6673e-02  0:03:33  302
   699  5.0409e-04  4.5871e-08  8.4421e-09  1.0467e-06  5.2371e-07  5.5116e-01  7.6673e-02  0:03:50  301
   700  4.7687e-04  4.4243e-08  7.5583e-09  1.0452e-06  5.4098e-07  5.5116e-01  7.6673e-02  0:04:04  300
   701  4.4372e-04  3.6151e-08  7.5668e-09  1.0359e-06  5.3885e-07  5.5116e-01  7.6673e-02  0:04:14  299
   702  4.0360e-04  3.2322e-08  7.1360e-09  1.0277e-06  5.3268e-07  5.5116e-01  7.6673e-02  0:04:22  298
   703  3.8058e-04  3.1687e-08  6.0980e-09  1.0167e-06  5.1314e-07  5.5116e-01  7.6673e-02  0:04:28  297
   704  3.6298e-04  3.5719e-08  5.3231e-09  9.7737e-07  4.9079e-07  5.5116e-01  7.6673e-02  0:04:33  296

  iter  continuity  x-velocity  y-velocity           k       omega          cl          cd     time/iter
   705  3.5402e-04  4.4689e-08  5.3291e-09  9.7781e-07  4.7484e-07  5.5116e-01  7.6673e-02  0:04:37  295
   706  3.8545e-04  6.1051e-08  7.2888e-09  1.0515e-06  5.1125e-07  5.5116e-01  7.6673e-02  0:04:40  294
   707  4.7863e-04  5.5985e-08  9.6525e-09  1.0752e-06  4.9962e-07  5.5116e-01  7.6673e-02  0:04:41  293
   708  4.8681e-04  5.7911e-08  9.7836e-09  1.0608e-06  4.7829e-07  5.5116e-01  7.6673e-02  0:04:43  292
   709  5.3219e-04  4.9185e-08  9.5473e-09  1.0085e-06  4.6397e-07  5.5116e-01  7.6673e-02  0:03:45  291
   710  5.0617e-04  4.8663e-08  8.2411e-09  9.7639e-07  4.7284e-07  5.5116e-01  7.6673e-02  0:03:58  290
   711  4.6566e-04  4.3274e-08  7.7466e-09  9.2408e-07  4.6977e-07  5.5116e-01  7.6673e-02  0:04:07  289
   712  4.4374e-04  3.6493e-08  6.7241e-09  8.7391e-07  4.7262e-07  5.5116e-01  7.6673e-02  0:03:17  288
   713  4.1250e-04  3.2736e-08  5.8565e-09  8.2337e-07  4.6884e-07  5.5116e-01  7.6673e-02  0:03:35  287
   714  3.8975e-04  3.1804e-08  5.2395e-09  7.9605e-07  4.6378e-07  5.5116e-01  7.6673e-02  0:03:48  286
   715  3.6152e-04  3.2589e-08  5.0445e-09  7.8642e-07  4.5349e-07  5.5116e-01  7.6673e-02  0:03:59  285

  iter  continuity  x-velocity  y-velocity           k       omega          cl          cd     time/iter
   716  3.4864e-04  3.3956e-08  5.0371e-09  8.0070e-07  4.3329e-07  5.5116e-01  7.6673e-02  0:03:11  284
   717  3.4009e-04  3.4793e-08  5.0494e-09  8.1417e-07  4.0820e-07  5.5116e-01  7.6673e-02  0:03:28  283
   718  3.4848e-04  3.8181e-08  4.9213e-09  8.1716e-07  3.8267e-07  5.5116e-01  7.6673e-02  0:03:43  282
   719  3.7517e-04  4.6948e-08  5.0653e-09  8.1638e-07  3.7549e-07  5.5116e-01  7.6673e-02  0:03:54  281
   720  4.4609e-04  6.1236e-08  6.2731e-09  8.4173e-07  3.9996e-07  5.5116e-01  7.6673e-02  0:04:02  280
   721  5.4682e-04  5.5521e-08  8.8188e-09  9.3768e-07  4.5336e-07  5.5116e-01  7.6673e-02  0:04:09  279
   722  4.9755e-04  5.2440e-08  8.1081e-09  9.8309e-07  4.8602e-07  5.5116e-01  7.6673e-02  0:03:18  278
   723  4.2977e-04  3.9897e-08  7.0431e-09  1.0040e-06  5.0237e-07  5.5116e-01  7.6673e-02  0:03:34  277
   724  3.9244e-04  3.1397e-08  6.0272e-09  9.9747e-07  5.0652e-07  5.5116e-01  7.6673e-02  0:03:45  276
   725  3.6789e-04  2.9866e-08  5.4375e-09  9.6446e-07  4.9266e-07  5.5116e-01  7.6673e-02  0:03:55  275
   726  3.4261e-04  3.3813e-08  4.8466e-09  9.1736e-07  4.5979e-07  5.5116e-01  7.6673e-02  0:03:07  274

  iter  continuity  x-velocity  y-velocity           k       omega          cl          cd     time/iter
   727  3.4656e-04  4.1874e-08  4.7856e-09  8.7029e-07  4.0322e-07  5.5116e-01  7.6673e-02  0:03:24  273
   728  3.7089e-04  5.3755e-08  5.5449e-09  8.1427e-07  3.3824e-07  5.5116e-01  7.6673e-02  0:03:37  272
   729  4.1843e-04  5.6718e-08  6.8959e-09  7.7112e-07  3.0681e-07  5.5116e-01  7.6673e-02  0:03:47  271
   730  4.4212e-04  4.3300e-08  7.5694e-09  7.6936e-07  3.1127e-07  5.5116e-01  7.6673e-02  0:03:01  270
   731  3.9858e-04  4.5903e-08  6.5257e-09  8.3018e-07  3.4810e-07  5.5116e-01  7.6673e-02  0:03:18  269
   732  3.9549e-04  4.9191e-08  5.6273e-09  9.0943e-07  3.9196e-07  5.5116e-01  7.6673e-02  0:03:31  268
   733  4.0336e-04  4.9367e-08  5.7043e-09  1.0092e-06  4.5562e-07  5.5116e-01  7.6673e-02  0:03:42  267
   734  4.1153e-04  4.8365e-08  6.0394e-09  1.1167e-06  5.1884e-07  5.5116e-01  7.6673e-02  0:03:50  266
   735  4.0792e-04  5.2764e-08  6.0939e-09  1.2186e-06  5.7928e-07  5.5116e-01  7.6673e-02  0:03:56  265
   736  4.1364e-04  5.4583e-08  6.3946e-09  1.2903e-06  6.3638e-07  5.5116e-01  7.6673e-02  0:03:08  264
   737  4.1515e-04  4.2261e-08  6.6437e-09  1.3120e-06  6.6079e-07  5.5116e-01  7.6673e-02  0:03:23  263

  iter  continuity  x-velocity  y-velocity           k       omega          cl          cd     time/iter
   738  4.0057e-04  3.2937e-08  6.5009e-09  1.3111e-06  6.6241e-07  5.5116e-01  7.6673e-02  0:03:34  262
   739  3.6908e-04  3.0788e-08  5.6277e-09  1.2811e-06  6.5376e-07  5.5116e-01  7.6673e-02  0:03:43  261
   740  3.5403e-04  3.2876e-08  4.5498e-09  1.2514e-06  6.3368e-07  5.5116e-01  7.6673e-02  0:02:57  260
   741  3.5780e-04  3.8156e-08  4.5183e-09  1.2209e-06  6.0087e-07  5.5116e-01  7.6673e-02  0:03:13  259
   742  3.8369e-04  4.9960e-08  5.1095e-09  1.2124e-06  5.6594e-07  5.5116e-01  7.6673e-02  0:03:26  258
   743  4.2793e-04  5.9605e-08  6.6185e-09  1.1508e-06  5.1575e-07  5.5116e-01  7.6673e-02  0:03:35  257
   744  4.8091e-04  7.1564e-08  8.0128e-09  1.0698e-06  4.4561e-07  5.5116e-01  7.6673e-02  0:03:43  256
   745  5.4920e-04  5.8681e-08  1.0180e-08  1.0317e-06  4.1394e-07  5.5116e-01  7.6673e-02  0:02:57  255
   746  4.4747e-04  4.6740e-08  7.6318e-09  9.9100e-07  3.9382e-07  5.5116e-01  7.6673e-02  0:03:12  254
   747  4.5500e-04  5.1470e-08  6.2567e-09  9.5831e-07  3.7163e-07  5.5116e-01  7.6673e-02  0:03:24  253
   748  4.9307e-04  7.4202e-08  6.6471e-09  1.0061e-06  3.8093e-07  5.5116e-01  7.6673e-02  0:03:33  252

  iter  continuity  x-velocity  y-velocity           k       omega          cl          cd     time/iter
   749  6.3334e-04  7.0738e-08  1.0474e-08  1.0283e-06  4.1891e-07  5.5116e-01  7.6673e-02  0:03:40  251
   750  6.0431e-04  5.4750e-08  9.9023e-09  1.0672e-06  4.4966e-07  5.5116e-01  7.6673e-02  0:03:45  250
   751  5.0434e-04  6.0386e-08  8.6002e-09  1.1196e-06  4.7977e-07  5.5116e-01  7.6673e-02  0:03:49  249
   752  5.3365e-04  7.7652e-08  8.1662e-09  1.1869e-06  4.9616e-07  5.5116e-01  7.6673e-02  0:03:52  248
   753  6.3216e-04  9.5473e-08  1.0910e-08  1.2244e-06  5.0329e-07  5.5116e-01  7.6673e-02  0:03:54  247
   754  7.3390e-04  7.5890e-08  1.3816e-08  1.1112e-06  4.6270e-07  5.5116e-01  7.6673e-02  0:03:07  246
   755  7.0945e-04  5.9330e-08  1.3177e-08  1.0910e-06  4.8798e-07  5.5116e-01  7.6673e-02  0:03:18  245
   756  5.9135e-04  4.7284e-08  1.1141e-08  1.1208e-06  5.4531e-07  5.5116e-01  7.6673e-02  0:03:26  244
   757  5.4274e-04  4.3642e-08  8.8265e-09  1.1558e-06  5.9617e-07  5.5116e-01  7.6673e-02  0:03:33  243
   758  4.8584e-04  4.5542e-08  7.5144e-09  1.2031e-06  6.3083e-07  5.5116e-01  7.6673e-02  0:02:50  242
   759  4.6905e-04  3.6178e-08  7.3494e-09  1.2490e-06  6.4859e-07  5.5116e-01  7.6673e-02  0:03:03  241

  iter  continuity  x-velocity  y-velocity           k       omega          cl          cd     time/iter
   760  4.3116e-04  3.4049e-08  7.1448e-09  1.2818e-06  6.4767e-07  5.5116e-01  7.6673e-02  0:03:14  240
   761  4.1494e-04  3.9053e-08  6.2513e-09  1.2820e-06  6.1892e-07  5.5116e-01  7.6673e-02  0:03:22  239
   762  4.2782e-04  5.1010e-08  6.3079e-09  1.2551e-06  5.6859e-07  5.5116e-01  7.6673e-02  0:03:29  238
   763  4.9881e-04  7.4992e-08  7.8417e-09  1.2530e-06  5.1707e-07  5.5116e-01  7.6673e-02  0:02:46  237
   764  6.0945e-04  7.2903e-08  1.0737e-08  1.2646e-06  5.0125e-07  5.5116e-01  7.6673e-02  0:03:47  236
   765  6.1799e-04  5.3052e-08  1.0862e-08  1.2832e-06  4.9031e-07  5.5116e-01  7.6673e-02  0:03:48  235
   766  5.4365e-04  4.5663e-08  9.4124e-09  1.3178e-06  4.7115e-07  5.5116e-01  7.6673e-02  0:03:01  234
   767  5.3215e-04  4.5301e-08  7.4286e-09  1.3070e-06  4.3364e-07  5.5116e-01  7.6673e-02  0:03:11  233
   768  5.1317e-04  4.7166e-08  7.2890e-09  1.2847e-06  3.9786e-07  5.5116e-01  7.6673e-02  0:03:19  232
   769  5.0899e-04  3.8741e-08  7.6062e-09  1.2448e-06  3.7631e-07  5.5116e-01  7.6673e-02  0:03:24  231
   770  4.5733e-04  3.4375e-08  7.1086e-09  1.2096e-06  3.7448e-07  5.5116e-01  7.6673e-02  0:02:43  230

  iter  continuity  x-velocity  y-velocity           k       omega          cl          cd     time/iter
   771  4.1131e-04  3.2572e-08  6.0606e-09  1.1819e-06  3.9272e-07  5.5116e-01  7.6673e-02  0:02:56  229
   772  3.8713e-04  3.2828e-08  5.0771e-09  1.1837e-06  4.3192e-07  5.5116e-01  7.6673e-02  0:03:05  228
   773  3.6907e-04  3.7455e-08  4.8848e-09  1.1658e-06  4.6115e-07  5.5116e-01  7.6673e-02  0:03:13  227
   774  3.7987e-04  5.0034e-08  5.3085e-09  1.1371e-06  4.5020e-07  5.5116e-01  7.6673e-02  0:02:34  226
   775  4.4553e-04  7.1195e-08  6.3896e-09  1.1159e-06  4.0145e-07  5.5116e-01  7.6673e-02  0:02:47  225
   776  5.3391e-04  6.9905e-08  9.0932e-09  1.0603e-06  3.5528e-07  5.5116e-01  7.6673e-02  0:02:58  224
   777  5.7313e-04  4.9522e-08  9.7852e-09  1.0256e-06  3.3627e-07  5.5116e-01  7.6673e-02  0:03:07  223
   778  4.8300e-04  4.2520e-08  8.4936e-09  9.9088e-07  3.3172e-07  5.5116e-01  7.6673e-02  0:02:29  222
   779  4.4134e-04  3.7300e-08  6.5259e-09  9.6089e-07  3.3299e-07  5.5116e-01  7.6673e-02  0:03:27  221
   780  4.0490e-04  3.0715e-08  5.5309e-09  9.4287e-07  3.4449e-07  5.5116e-01  7.6673e-02  0:02:45  220
   781  3.6425e-04  3.2770e-08  5.1740e-09  9.3785e-07  3.6728e-07  5.5116e-01  7.6673e-02  0:02:55  219

  iter  continuity  x-velocity  y-velocity           k       omega          cl          cd     time/iter
   782  3.4527e-04  3.6728e-08  5.3339e-09  9.9419e-07  4.3357e-07  5.5116e-01  7.6673e-02  0:03:03  218
   783  3.5349e-04  4.0188e-08  5.9721e-09  1.0198e-06  4.6051e-07  5.5116e-01  7.6673e-02  0:03:09  217
   784  3.3492e-04  5.0653e-08  6.1349e-09  1.0047e-06  4.3468e-07  5.5116e-01  7.6673e-02  0:03:14  216
   785  4.1061e-04  5.6512e-08  7.2656e-09  1.0599e-06  4.3148e-07  5.5116e-01  7.6673e-02  0:02:34  215
   786  4.6862e-04  5.6182e-08  8.4695e-09  1.1698e-06  4.8414e-07  5.5116e-01  7.6673e-02  0:02:46  214
   787  5.0962e-04  5.0357e-08  8.6168e-09  1.2090e-06  5.0335e-07  5.5116e-01  7.6673e-02  0:02:54  213
   788  4.9301e-04  4.5450e-08  8.2405e-09  1.2550e-06  5.2657e-07  5.5116e-01  7.6673e-02  0:03:01  212
   789  4.2810e-04  3.9164e-08  6.8298e-09  1.3036e-06  5.5356e-07  5.5116e-01  7.6673e-02  0:02:24  211
   790  3.9074e-04  3.1789e-08  5.4614e-09  1.3163e-06  5.5588e-07  5.5116e-01  7.6673e-02  0:02:37  210
   791  3.4096e-04  3.1210e-08  4.7380e-09  1.3088e-06  5.3982e-07  5.5116e-01  7.6673e-02  0:02:47  209
   792  3.2672e-04  3.5472e-08  4.4706e-09  1.2810e-06  4.9689e-07  5.5116e-01  7.6673e-02  0:02:54  208

  iter  continuity  x-velocity  y-velocity           k       omega          cl          cd     time/iter
   793  3.3977e-04  4.3365e-08  5.0253e-09  1.2548e-06  4.5500e-07  5.5116e-01  7.6673e-02  0:03:00  207
   794  3.5901e-04  3.7268e-08  5.8752e-09  1.1991e-06  4.2639e-07  5.5116e-01  7.6673e-02  0:03:05  206
   795  3.4693e-04  3.1246e-08  5.5622e-09  1.1359e-06  4.1855e-07  5.5116e-01  7.6673e-02  0:03:08  205
   796  3.1696e-04  2.8570e-08  4.6484e-09  1.0851e-06  4.2985e-07  5.5116e-01  7.6673e-02  0:03:10  204
   797  2.9930e-04  2.8912e-08  3.9330e-09  1.0405e-06  4.5358e-07  5.5116e-01  7.6673e-02  0:02:32  203
   798  2.9217e-04  3.1217e-08  3.8511e-09  9.9499e-07  4.6438e-07  5.5116e-01  7.6673e-02  0:02:41  202
   799  2.7508e-04  2.3297e-08  3.9707e-09  9.5086e-07  4.6547e-07  5.5116e-01  7.6673e-02  0:02:48  201
   800  2.5344e-04  2.1354e-08  3.6106e-09  9.2419e-07  4.6492e-07  5.5116e-01  7.6673e-02  0:02:14  200